/*--------------------------------*- C++ -*----------------------------------*\
| =========                 |                                                 |
| \\      /  F ield         | OpenFOAM: The Open Source CFD Toolbox           |
|  \\    /   O peration     | Version:  1.6                                   |
|   \\  /    A nd           | Web:      www.OpenFOAM.org                      |
|    \\/     M anipulation  |                                                 |
\*---------------------------------------------------------------------------*/
FoamFile
{
    version     2.0;
    format      ascii;
    class       dictionary;
    location    "system";
    object      dsmcInitialiseDict;
}
// * * * * * * * * * * * * * * * * * * * * * * * * * * * * * * * * * * * * * //

configurations
(
    configuration
    {
        type                dsmcZoneFill;
        zoneName            region1;

        numberDensities
        {
    		N2         6.084e25;
		};

		translationalTemperature     	300;
		rotationalTemperature			300;
		vibrationalTemperature			0;
        electronicTemperature           0;

		velocity        (40 0 0);
    } 
    
    configuration
    {
        type                dsmcZoneFill;
        zoneName            region2;

        numberDensities
        {
    		N2         5.167e25;
		};

		translationalTemperature     	300;
		rotationalTemperature			300;
		vibrationalTemperature			0;
        electronicTemperature           0;

		velocity        (40 0 0);
    }
    
    configuration
    {
        type                dsmcZoneFill;
        zoneName            region3;

        numberDensities
        {
    		N2         4.249e25;
		};

		translationalTemperature     	300;
		rotationalTemperature			300;
		vibrationalTemperature			0;
        electronicTemperature           0;

		velocity        (40 0 0);
    }
    
    configuration
    {
        type                dsmcZoneFill;
        zoneName            region4;

        numberDensities
        {
    		N2         3.332e25;
		};

		translationalTemperature     	300;
		rotationalTemperature			300;
		vibrationalTemperature			0;
        electronicTemperature           0;

		velocity        (40 0 0);
    }
    
    configuration
    {
        type                dsmcZoneFill;
        zoneName            region5;

        numberDensities
        {
    		N2         2.414e25;
		};

		translationalTemperature     	300;
		rotationalTemperature			300;
		vibrationalTemperature			0;
        electronicTemperature           0;

		velocity        (40 0 0);
    }
    
    
);

// ************************************************************************* //
