/*--------------------------------*- C++ -*----------------------------------*\
| =========                 |                                                 |
| \\      /  F ield         | OpenFOAM: The Open Source CFD Toolbox           |
|  \\    /   O peration     | Version:  1.6                                   |
|   \\  /    A nd           | Web:      www.OpenFOAM.org                      |
|    \\/     M anipulation  |                                                 |
\*---------------------------------------------------------------------------*/
FoamFile
{
    version     2.0;
    format      ascii;
    class       dictionary;
    location    "system";
    object      sampleDict;
}
// * * * * * * * * * * * * * * * * * * * * * * * * * * * * * * * * * * * * * //

interpolationScheme cellPointFace;

setFormat       raw;

surfaceFormat   raw;

sets
(
    channel
    {
        type    uniform;
        axis    y;
        start   ( 2e-06 -0.2e-06 1e-15 );
        end     ( 2e-06 0.2e-06 1e-15 );
        nPoints 200;
    }
);

surfaces        
( 

);

fields 
(
	UMean
	overallT
);


// ************************************************************************* //
