/*---------------------------------------------------------------------------*\
| =========                 |                                                 |
| \\      /  F ield         | OpenFOAM: The Open Source CFD Toolbox           |
|  \\    /   O peration     | Version:  2.4.0-MNF                             |
|   \\  /    A nd           | Web:      http://www.openfoam.org               |
|    \\/     M anipulation  |                                                 |
\*---------------------------------------------------------------------------*/

FoamFile
{
    version     2.0;
    format      ascii;
    class       dictionary;
    location    "system";
    object      couplingDict;
}

// * * * * * * * * * * * * * * * * * * * * * * * * * * * * * * * * * * * * * //

couplingName	dsmcDomain; //Coupling domain name

couplingConfigurations
( 
    TwoDInterfaces //2D coupling interfaces
    {        
    }

    ThreeDInterfaces //3D coupling interfaces
    {
	ifs_1
	{	
	    sending			yes;
	    receiving			yes;
            smartSend			yes;    
	    iterationCoupling		yes;      
	}

	ifs_2
	{
	    sending			yes;	
	    receiving			yes;
            smartSend			yes;
	    iterationCoupling		yes; 
	}
    }
);

// ************************************************************************* //
