/*--------------------------------*- C++ -*----------------------------------*\
| =========                 |                                                 |
| \\      /  F ield         | OpenFOAM: The Open Source CFD Toolbox           |
|  \\    /   O peration     | Version:  1.6                                   |
|   \\  /    A nd           | Web:      http://www.OpenFOAM.org               |
|    \\/     M anipulation  |                                                 |
\*---------------------------------------------------------------------------*/
FoamFile
{
    version     2.0;
    format      ascii;
    class       dictionary;
    object      bordersDict;
}

// * * * * * * * * * * * * * * * * * * * * * * * * * * * * * * * * * * * * * //

borders
(
//     border
//     {
//         model                           repulsiveBorder;
// 
//         repulsiveBorderProperties
//         {
//             agentIds                      (A1);
//         }
//         
//         bordersList
//         (
// 
//             ( (20 20 0) (20 60 0) (60 60 0) (60 20 0) (20 20 0 ) )
//         );        
//     }
);




// ************************************************************************* //
