/*--------------------------------*- C++ -*----------------------------------*\
| =========                 |                                                 |
| \\      /  F ield         | OpenFOAM: The Open Source CFD Toolbox           |
|  \\    /   O peration     | Version:  1.6                                   |
|   \\  /    A nd           | Web:      http://www.OpenFOAM.org               |
|    \\/     M anipulation  |                                                 |
\*---------------------------------------------------------------------------*/
FoamFile
{
    version     2.0;
    format      ascii;
    class       dictionary;
    object      forceFieldsDict;
}
// * * * * * * * * * * * * * * * * * * * * * * * * * * * * * * * * * * * * * //

rCut            10;

// Pair potentials

pairPotentials
(
    A-A
    {
        model   helbingExponential;
       
        rCut            10;
        rMin            1;
        dr              0.001;
        helbingExponentialProperties
        {
            A           2000;
            B           0.08;
            k           1.2e5;
            kappa       2.4e5;
        }
    }
    
    B-B
    {
        model   helbingExponential;
       
        rCut            10;
        rMin            1;
        dr              0.001;
        helbingExponentialProperties
        {
            A           2000;
            B           0.08;
            k           1.2e5;
            kappa       2.4e5;
        }
    }    
    
    A-B
    {
        model   helbingExponential;
       
        rCut            10;
        rMin            1;
        dr              0.001;
        helbingExponentialProperties
        {
            A           2000;
            B           0.08;
            k           1.2e5;
            kappa       2.4e5;
        }
    }    
);


bodyForces
(
//     force
//     {
//         model       scheduledForce;
//         
//         scheduledForceProperties
//         {
//             agentIds                      (A);
//             factor                        1;
//         }
//     }
    
    force
    {
        model       agentFluctuatingForce;
        
        agentFluctuatingForceProperties
        {
            agentIds                      (A B);
            gamma                         1e-5;
            temperature                   1e23;
        }
    }    
);



// * * * * * * * * * * * * * * * * * * * * * * * * * * * * * * * * * * * * * //
