/*--------------------------------*- C++ -*----------------------------------*\
| =========                 |                                                 |
| \\      /  F ield         | OpenFOAM: The Open Source CFD Toolbox           |
|  \\    /   O peration     | Version:  1.6                                   |
|   \\  /    A nd           | Web:      http://www.OpenFOAM.org               |
|    \\/     M anipulation  |                                                 |
\*---------------------------------------------------------------------------*/
FoamFile
{
    version     2.0;
    format      ascii;
    class       dictionary;
    object      measurementDict;
}
// * * * * * * * * * * * * * * * * * * * * * * * * * * * * * * * * * * * * * //

measurements
(
    
    field
    {
        model                       basicOutputs;

        basicOutputsProperties
        {

        }
    }
    
    field
    {
        model                       videoPDB;

        videoPDBProperties
        {
            fieldName               agentsA;
            agentIds                (A);
            numberOfFiles           1;
            numberOfOutputSteps     100;
        }
    }
    
    field
    {
        model                       videoPDB;

        videoPDBProperties
        {
            fieldName               agentsB;
            agentIds                (B);
            numberOfFiles           1;
            numberOfOutputSteps     100;
        }
    }   


);

// ************************************************************************* //
