/*--------------------------------*- C++ -*----------------------------------*\
| =========                 |                                                 |
| \\      /  F ield         | OpenFOAM: The Open Source CFD Toolbox           |
|  \\    /   O peration     | Version:  2.4.0-MNF                             |
|   \\  /    A nd           | Web:      www.OpenFOAM.org                      |
|    \\/     M anipulation  |                                                 |
\*---------------------------------------------------------------------------*/
FoamFile
{
    version     2.0;
    format      ascii;
    class       vectorField;
    location    "0/lagrangian/polyMoleculeCloud";
    object      pi;
}
// * * * * * * * * * * * * * * * * * * * * * * * * * * * * * * * * * * * * * //


4298
(
(-0.113607759804183 -0.0859608792607643 -0.213124532073705)
(0.212396926645143 -0.00154646134250633 -0.053644179368813)
(0.177087185352264 -0.244559069330963 0.461350361303046)
(0.0739152897698161 -0.210601302987495 0.0559470813482745)
(-0 0 -0)
(-0.0932270296029809 -0.0268735171363566 0)
(0 0 -0.0863444119319876)
(0.0466178295163521 -0.105761516747299 -0.103007570766779)
(-0 0 -0.0583471692439891)
(-0.189600455277505 0.223096155100104 -0)
(0.119841061623548 0.0130551983213032 -0.212201980196491)
(-0.162037004742527 -0.0101520846088318 -0.14342312959566)
(-0.0801397831778676 0.341341610293685 -0.083746177188546)
(-0.123461981058732 0.275736741093488 -0.136103666721866)
(0.109235271292543 0.100730426452135 -0.220117113064504)
(-0.0631790637833363 -0.185685404053167 -0.152769091164443)
(-0 0 0.0806306856935834)
(0.084031334974652 0.142568218937165 -0.000127756895758637)
(0.0985127354290412 0.216484056483987 -0.0836098615100745)
(0.0404591527067077 -0.216052979567993 -0)
(0.0528533869167092 0.10115273397551 -0)
(-0.0663930184956331 0.0765115911161946 -0.152410010170545)
(-0.0259131585949705 0.114889286518931 -0.00926547262285936)
(0.132161723929949 0.0486104504144589 -0.462693740712649)
(0.38205629177379 0.00913436740756402 -0.269929906507453)
(0 -0 0.264893511315902)
(0 0 -0.14850373826195)
(0.119843500680068 -0.0743559236050851 0.249968395234064)
(-0.186230657145397 -0.122654268056652 0.349627017363322)
(0.0597685567301998 0.139155229980734 0.290239029307761)
(0.0883943227921791 -0.382868212250513 -0)
(0.0181946831979783 0.127215427250237 -0.270132989253227)
(0.105594181547103 -0.225859092188521 -0.0537009256842666)
(-0 0 -0.222964233138661)
(0.108244032202276 -0.212530881835162 0.201793261970694)
(0 -0 -0)
(0 -0 -0.262772185891925)
(0 0 -0.0544496403416753)
(-0 0 -0.120391161636153)
(-0.0823753895175284 -0.112643584299362 -0.370341082753363)
(0.0523385335457505 -0.143871921041499 0.185315207497031)
(0.130116465128643 0.209689706290659 -0)
(-0 0 -0.0516027837801052)
(-0.161736572575713 0.00315135425992447 0.196061707815626)
(-0 -0 -0.267283457900728)
(0.234103609815193 -0.0100192994147377 0.150704436680723)
(-0.0430799856423375 0.211808095486692 -0)
(0.00554771939160961 -0.426901131334066 -0.384838305670684)
(-0.00721187731547848 0.256251703354952 0.356993750197573)
(0.359810206815934 -0.381791834291399 0.0245533636691883)
(0 -0 0.112416372146393)
(-0.00702436203145482 0.125752983256933 0.323643921427685)
(0 -0 -0.225016861435993)
(-0 0 -0)
(0 0 0.0808401524110962)
(0 -0 0.072168689074438)
(-0.0129246594521895 0.366189457597239 0)
(0.179951011485742 -0.114070537015277 0.137013400967117)
(0.0589656415866681 0.138922534066918 -0.1376178008828)
(-0.0512312550108683 -0.223872576452419 0.0320189198403676)
(-0 -0 -0.0608808126793653)
(-0.0836779374080078 0.184485440902641 -0.131989637345607)
(0.0259475582441567 -0.200982668885503 0.312219515900785)
(0 -0 -0)
(0.0798465439187124 0.305444839584322 0)
(-0 -0 -0)
(0.231310969976319 -0.0666983542350311 -0.122734923713685)
(-0 0 0.208859847798705)
(0.0521771632711811 0.212423486235544 -0.218390458591176)
(-0.0828070783128298 -0.160066344909265 0.133019183395321)
(0.033310732249706 -0.231955831759913 -0.228426518868447)
(0.0698626517997157 0.0751025928042235 0)
(0 0 -0.260831055039603)
(-0.151065106180033 0.0901336569618455 0.129691582098499)
(0.0148650980506075 0.247370612821884 -0.143946638622183)
(0.0834707862469842 0.144470079452788 -0.161046814241938)
(-0.285034276274187 -0.169972214843911 0.0275859282166543)
(-0.0903537259320282 0.0415552886703182 0)
(0 0 0)
(0.0975733386312408 0.0848896961961732 0.0272942603318176)
(0 0 0.251103638732704)
(0 -0 0)
(0.11728713436224 0.0756465147488717 -0.137392838449217)
(-0.0850344425749875 -0.102469830948732 -0.0268708987783026)
(-0.111490709350733 0.157848406949231 0.121724879387511)
(0.0856774173413861 -0.025853460394575 -0)
(0 -0 -0.107191814140266)
(-0.191496678970222 -0.17013585422705 0.156657714235271)
(0.022071873966302 -0.274068716404459 0)
(0 0 0.151594157877888)
(-0.136549813553378 -0.0186395575304507 -0)
(-0.146359011088542 0.294478056550088 -0)
(-0.0475877692221319 -0.142981989066298 -0.394147217249343)
(-0.105310282348367 -0.18303457961359 0.195896306236368)
(0.0672430156749563 -0.156214497998882 0.0163612911427831)
(0 0 -0.0444253714014786)
(-0.135664766270499 -0.193844764125792 -0.0793279760027474)
(-0.0120436275705796 -0.161475972375612 -0)
(-0 0 -0)
(0.102713700091516 -0.198258787678839 -0.040977662369646)
(0.192711110742018 0.0229136376340978 -0.240760247917385)
(-0.0679909963015109 0.0870258485778678 -0.496789227507874)
(-0 0 0.116980215555354)
(-0 -0 0)
(0 -0 0.0974096748559939)
(0 0 -0)
(0 0 0.198755480368741)
(0 0 -0)
(0.176615595369882 -0.147672210393017 0.210441994989636)
(0 0 0)
(0 0 0.214239870805875)
(0.129318767526368 0.209446553206527 -0)
(-0.0780547850159292 -0.0556481050751393 0.279142708448279)
(0 -0 -0.066263870383818)
(0.24555214180147 0.182995353625892 0.222133917115927)
(-0 0 0.0361542072370173)
(-0.0535187483227235 0.301383011559634 -0)
(-0.0756290833871391 0.239895632235125 -0.0563506147860101)
(0.0258201296869226 0.119925331900696 -0.0492702286729833)
(-0 0 0.0783104502697075)
(0.18397408624822 -0.00375351754021471 0.0464373082136801)
(-0 -0 -0.149694380964541)
(-0.0946593988929266 -0.157841533683791 0.0700466545502356)
(0.0754491431468325 0.3648924827221 -0.00238456849683843)
(0.087073888310845 -0.205912528335145 -0.246532990070358)
(-0.10027878095303 -0.0804287226218506 -0.0659081077202421)
(-0 0 -0.219312729204947)
(-0.0523167129395746 -0.228405849741557 0)
(0.0757624876102388 0.114642025966151 0.200148549375286)
(-0.0441074912623296 -0.173556913388277 0.00622510762267309)
(-0.0496282064138308 -0.107758487125443 -0.113406018855484)
(-0.032603992573271 0.121405632532724 0)
(-5.37457038731537e-05 0.124805473522131 0)
(0.0125018769642791 -0.267269152613599 0)
(0.192987090388412 0.120819133568234 -0)
(0.0492248012964301 -0.1086145538805 -0)
(-0.144274665476761 -0.0649145785055492 0.334538566783849)
(-0.128694153035854 -0.175914553029544 -0)
(-0.250063369311075 0.221251662426276 0)
(-0 -0 -0.134815073625086)
(0.114845924210947 0.0461930992431014 -0.162049261521516)
(-0.0446079851639775 0.155159334415698 -0.0283690670132638)
(-0.0879758105567195 0.00275659969371211 -0.454112398373299)
(-0.126888243099125 0.0644095713485696 0.229134991572321)
(-0 0 0.0195451872911959)
(-0.00669289350844912 0.118107472204541 0.143157867117099)
(-0.111724149225261 0.0657652307713633 -0.0772772346680479)
(0.18186808508203 0.205754243143222 0.0619233227421787)
(0.024108298537265 -0.157195767247872 -0.00427750089033464)
(0 -0 -0)
(-0 -0 -0)
(-0.197414688892234 -0.0701039592824653 -0.143689075936484)
(0.0982074394145447 0.116396841434025 -0)
(0 0 -0)
(0.0873228284661246 0.0397060523695293 0.150066808438615)
(-0.194106829492218 0.00237986458881916 -0.258849310505727)
(-0 0 0.127169926291778)
(-0.0889891940565726 0.274011742409035 0)
(0 0 0.0179262442500394)
(-0.018067637518016 0.179789190305676 -0.186150583971346)
(0.0649588055814034 0.207747915520063 0.227086456070596)
(-0.114723555161549 0.0014224993904319 -0.199867382329885)
(-0 0 -0.0934274177776761)
(0 -0 -0.0298265600072342)
(0 0 -0.190173096837835)
(-0.0801711945929839 0.0436070159188949 -0.322214663846979)
(-0.0763654810605148 -0.316122209473879 0)
(-0 0 -0.0233541430110229)
(0.106851659783227 0.0750817635862945 0)
(0 0 -0.471444794387512)
(0.117163545040034 -0.0140085887032543 0.27662021712999)
(-0.0741359399190102 -0.0778174983361281 -0.100435569555385)
(-0.1027284201111 0.336800766808912 0.0673364862357178)
(0.200895103392369 -0.104726578909638 -0.175164652948379)
(0.130686986332175 -0.197241881640386 0)
(-0.0786735537261102 0.26840957128969 0)
(0.0843417442632305 0.0397659107609046 -0.191300455422998)
(0.186684862279931 0.0601831913148092 -0)
(0.0507509461870919 0.196424893044495 -0.0933463913675108)
(0 0 -0.0902229869509246)
(0.157089890673848 -0.0812350428698789 0.00738872694303168)
(-0.0872317503806188 0.113758508497206 0)
(-0.132037182227917 -0.0489729692241498 -0.204742210542258)
(0.174706674086057 -0.255564702602805 0.155563154166236)
(0.202168889194361 -0.0383235865151399 -0)
(0.0913032126671644 -0.0214422883338029 -0.182858680182579)
(-0 -0 0.362812872058235)
(-0.136458023568535 -0.108581663979724 0.286226240989497)
(-0 -0 0.327609080433957)
(0.123786876816412 0.196477890088604 0.193562350487457)
(-0 -0 -0.130751073418639)
(0.0586982474447068 0.0883552839761372 0.0932821450637994)
(-0.0792158664723537 0.16395459806539 -0)
(-0 0 0.244397759826142)
(-0.0635102198432589 0.131533935644937 -0)
(-0.264433175091815 0.113253130141846 0.368035060969099)
(0.0854148516343019 -0.0326530748481006 0.256767348493375)
(-0 -0 0.423014853628339)
(-0.037679309610617 -0.112534101061632 -0)
(-0.0951556642342485 -0.18842082694713 0.0184702398890158)
(0.164642530657637 -0.158426576618193 -0.302065963074516)
(-0 0 0)
(0.13453663196726 -0.065670355671584 -0.160939415384088)
(0.135935576164958 0.00715207022379882 -0.00490765921497112)
(-0.198433029963643 -0.108858061288306 -0.183124237665038)
(0.0730843699550705 -0.0656816102517558 -0.285141126901826)
(-0.0401419109332043 0.205043530795968 -0.415559526774114)
(-0.0878603966982689 -0.0116523229033357 0.184249774474738)
(0.0401570585470429 0.109992113762734 -0.0173602767076326)
(0.00446331025240967 0.119982072436102 0.212896082033233)
(-0.0822485324252449 -0.0377267689399365 -0)
(-0 0 -0.264408431684036)
(0.141941290083863 0.259680984284911 -0.34960757315816)
(0 -0 -0)
(-0.102626270470184 0.0855418114836076 0.159152530915894)
(-0.18379239706113 0.0640144307116299 0)
(0.0751395202771976 -0.0582627690237239 0)
(-0.116968863147396 0.117269942383567 0.237766312391724)
(-0.0684338531189529 0.084783010438862 -0)
(0.0577186285740155 0.0891276690672021 -0.353462613832315)
(-0 0 0.0800393420460319)
(-0.170099355456127 -0.106971871364231 0)
(0.0873707643493724 -0.245715548368631 -0.0641058107506552)
(0.013943464290311 0.164095568841981 0.303945082596463)
(0.153131505411978 0.0788649413155352 -0.114476081727186)
(-0.192986108575455 -0.369888648228118 -0)
(-0.166842456159566 -0.134698737616784 0)
(0.105218196341692 0.110862626532992 -0)
(-0.0783826594224197 -0.053010203950058 -0.0509094896464526)
(0.005823018940798 -0.158487977418757 -0.172778786573781)
(0.141054722415576 -0.305960823608286 0.203360263947396)
(-0.126331807029476 -0.333556735680063 -0)
(-0 -0 0)
(0.0431911054624198 -0.109904714846218 -0)
(-0.136228072683029 -0.0224015898909458 0.14704383357729)
(0 0 0.138047123196999)
(-0 -0 -0.180142205441643)
(-0.123919619686533 0.125249842126958 0)
(-0 0 0.274569544931606)
(-0 0 0.0928157250247715)
(0.00686914496045621 0.218948289143866 -0)
(-0 0 0)
(0 -0 -0.342203075234937)
(-0 -0 0)
(0.146345181340007 0.103938772001363 -0)
(-0.183865296506105 0.25830299107749 0.212387769824618)
(0.048271096560115 0.467645517354073 -0.0320697565626489)
(-0 -0 0.245198465097196)
(-0.019128015491846 0.195724799422712 0)
(-0.11849115416647 -0.357235219692864 0.209710919969692)
(0.0650831212339242 0.172934128489272 0.0105651999984625)
(-0.0501516005749479 -0.196195692749285 0.0834575579591357)
(0.146205288479847 0.204937300245797 0.0405046677917908)
(-0.0919359464780543 -0.109126158075768 0.0471221413808883)
(0.0155217166443429 -0.25612658560757 -0)
(-0 0 0.225408324098757)
(-0.0465585666905633 0.14593990035467 0.213989148496973)
(0.0883401779827559 -0.11292908615338 -0.0261952349481798)
(-0 0 0)
(0.127841995091933 -0.0552803663531895 -0)
(0.0879284998384577 0.0305899273485412 -0)
(-0.0914433913135572 0.00461972238010592 -0.249419159869791)
(0 -0 -0.179529456772704)
(-0.110973332453402 -0.132171005654073 -0)
(-0.0089947295618196 0.124939613531147 -0.127429881362014)
(-0 -0 -0.229278750352669)
(-0 0 -0.230240869216285)
(0 -0 0.109867446287887)
(0.149774284057182 0.232388930691919 0.136170548991236)
(-0.190094464663236 -0.117460940094177 0)
(-0.0131890564988361 -0.128224950193148 0.0807128666759799)
(0 0 0.0453933583192595)
(-5.34135095546044e-05 -0.123027574911788 0.023322916414431)
(-0.0548382023627971 -0.195070799637904 -0.0287299898846824)
(-0.0218601201327636 0.212337584103246 0.132208333764329)
(-0.0807221668019163 -0.0428021070240814 0)
(0.11710645592921 -0.155042222828856 -0)
(-0.208416946672172 0.11267826653253 0)
(0.0172400144111299 0.22610691587164 -0)
(-0.0589668876858396 0.137712603327729 0.147251789662)
(-0 0 -0.190829373634362)
(-0 0 -0.247092922564521)
(-0.0730252025684667 -0.486369592606481 0.0679726615115234)
(-0.102229029074531 -0.372299164818885 0)
(-0 -0 0.219393545795143)
(0 0 -0.249487995781147)
(-0.00503808380970403 -0.165204029545783 0)
(-0 -0 -0)
(0.178517292990224 -0.16471311355935 -0)
(0.077488543222225 0.171527864659174 -0)
(-0 -0 -0)
(-0.0153993390091056 -0.128985227649177 -0.166967429181576)
(0.0413353281176842 0.205450699963342 -0.158792812241484)
(0 0 -0.0071607459198936)
(0.134854222222918 -0.0186098655830936 0.212760476801054)
(0.14244271235047 -0.245383905972027 -0.00308353062175224)
(0.16875967589684 0.0895579030821951 0)
(-0.0777784327115791 -0.0707134151330879 -0.0327876821667269)
(0.0253711120294694 0.114678153649624 0.0464790486801022)
(-0.17683606869762 0.0924062480755271 0)
(0 -0 -0.0353592945858657)
(0.0783809538881745 -0.0661671872333025 -0.0255026348963418)
(-0.0749224001147369 0.120025102435927 0.0940296481135414)
(0.00958869012494085 0.119174344725884 0)
(0.0895472692586716 -0.139347826904164 0.248409847175894)
(0.0634212946885551 0.085104957130081 -0)
(-0 -0 0.281455319748988)
(0.196849745227815 -0.169033964455974 -0.326347398560804)
(-0.00135658886000018 -0.178460308579685 0.139927961729721)
(0.324723530328898 0.048953263749048 -0)
(-0.173609964649534 0.139607526680205 -0.408291097036346)
(0.14197516671828 -0.0835704837063813 0.141214859834364)
(-0.0857707908104216 0.0256215043047607 0.0157582801317882)
(-0.0828311729019326 -0.0652398143580642 0)
(-0 0 -0.269034764059112)
(0 0 0)
(-0.126338335487869 -0.119491985379529 -0)
(0.0453361132221369 0.225884224607257 -0)
(0 -0 0)
(-0.116141418189114 0.318999032136245 -0)
(-0.0304615558748594 -0.270299022618955 -0.152588112789833)
(0.205648620119576 -0.075430306632793 -0.120106482544605)
(0.0200181554209203 0.224704545030803 0.0500758965665249)
(0.0205427584837766 -0.383759246829957 -0.220858740079085)
(0 0 0)
(-0.115279084716698 0.0504862346661197 0.144477979752295)
(0.154807100931227 0.103682616725064 0)
(-0.157042517990484 -0.381884675744865 0.125245362491429)
(-0.0229667625791069 0.244166515513111 -0.219493918531443)
(-0 0 0.155500587681981)
(-0.0771679786210635 -0.120088956878961 0)
(0 0 0.397319048693924)
(0.00808452600405989 -0.297904876072798 0)
(0.143020978989694 0.171139593117477 0)
(-0 -0 -0.16629132660967)
(-0 -0 -0.12096846153265)
(-0.00717439816660333 -0.184587427529478 0)
(0 0 -0.162082294051801)
(0.095744433374174 0.0860028913525187 0)
(0.0550956325958504 -0.227921005421939 -0)
(-0 0 -0.193213769783273)
(-0.0999181648281448 0.0792445689666107 -0.179824549408645)
(-0 0 0.160879412500278)
(0.070276873803811 -0.129631576803902 -0.0955044346899998)
(0.181060520722875 0.169467435905388 -0)
(0.250093120737325 -0.0153955290132811 -0.345831358469585)
(-0.081211207550298 -0.354057262867768 0.272014910448004)
(0.140017582787677 0.0389796038407662 0)
(-0.0905764637403185 -0.104828078193492 -0.100606042933759)
(-0.140757231305436 0.146186304270715 -0)
(-0 -0 0)
(-0.151252407700168 0.368260994264647 0.0161537176243463)
(-0 0 0)
(0.0867160051611177 0.505143677318868 -0.127752048097296)
(0.042218333319744 -0.148014360524644 0.253732519895885)
(-0 0 0.521165413306007)
(-0.23434183602117 -0.235790098741847 0)
(-0 -0 0.0658464912980991)
(-0 0 -0.230661086726117)
(0 0 0.182728510081236)
(-0 0 0.236492239142434)
(-0 0 -0.341018378379696)
(0.113478560516119 -0.218938985820863 -0)
(-0.0665640450518605 -0.0943569330930484 0)
(0.148828812144111 0.219229182152698 -0.143932726717049)
(0.0531030918209633 -0.10228332464542 0.134286811331565)
(0 -0 -0.0853525372686442)
(0.0494354080168047 0.106499198663232 -0)
(0.0203400723583488 0.121633333652401 -0)
(0 -0 0.192523652814647)
(0.232470403708331 -0.0686737689648651 0.150850186245902)
(-0.19950553437058 -0.183800160644196 -0.318717843352782)
(0.0860305874720965 -0.144498481326449 -0)
(0.120792794591929 0.111890699868392 0.289858314441367)
(-0.101955200329878 -0.280120158922463 0.0931485753885739)
(0.14786270753514 -0.145821014528221 0.42059922929381)
(-0 -0 0)
(0.200362646253372 -0.157200283145343 -0)
(0 -0 -0)
(-0.128255734030725 -0.363274324756104 -0.127703412964666)
(0.0688929030235045 0.0713074904914752 -0)
(0.0343000819346269 -0.340262807917564 -0.529803321760322)
(0.00292766813471832 -0.122895025401021 -0.0351943202688729)
(0.0715119626011591 -0.281271678101167 -0)
(-0.0218817327515488 0.180162921567113 0.187621682230779)
(0.213242501556946 -0.124290740943168 0.420584920270834)
(-0.0490146499040191 -0.104940840405269 0.224699085051721)
(0.00145267233589227 0.161710438050733 0.144510256535319)
(0.0787776757804032 -0.0703699098972772 0.433970572631239)
(0.0849857024700011 -0.157999795421353 0.265002487629512)
(-0.0126474794403244 0.129064999423566 0)
(-0.0674851791724831 -0.0834972628792394 -0.492097234310716)
(-0 -0 -0.0539240155824258)
(0.0305275304738967 0.181993065529033 0)
(0.0408803487481812 0.217963312590692 -0.255843714295477)
(-0.106426830275893 -0.0601784138902643 -0)
(0.189105797194505 -0.0156227486706926 0)
(-0.135710642431073 -0.344847834303728 -0.0928094038314038)
(0 -0 -0.144095750748273)
(-0 0 0.333250243429597)
(0.0676198755026941 0.320746213712237 0.223136344733626)
(-0.167622213978715 -0.0584641537842984 0)
(0.142165736751468 -0.0372981247654788 0.0498202568148916)
(0 -0 0)
(0.114944607509928 -0.277099206571495 -0.560829361196018)
(0 0 0.0586396719890692)
(0 -0 -0.152924115653379)
(-0 0 -0)
(0.045106985946089 -0.166974514115029 -0.413162874515352)
(-0 0 0.0657130262821389)
(-0.0773172235243844 0.290217948422257 -0.146110239726584)
(0.113371499626394 0.303872209753313 -0.187269783726455)
(0 -0 0.253320793936385)
(0.0832956437817749 0.115169613059757 -0.173141387363908)
(0.0878215889178952 -0.343651847755193 0)
(0.0799669883701392 -0.0703224421040521 -0.363061448954932)
(-0.0925639044738618 -0.139438605967553 -0.0589596374610107)
(-0.184048047945197 0.0320389214858515 0.191601018989495)
(0.229614301764049 -0.137004182810147 0.416864896143359)
(-0.12975905438007 -0.207492972712894 -0.331554201744488)
(0 0 -0.190203284739765)
(-0 0 0.437802483066754)
(-0.088883543317073 0.140526462131173 -0.20590424079399)
(0.188932404665302 -0.0951479346025962 -0.26302626975372)
(-0 0 0)
(-0.072325906363478 0.206006341613337 -0.0241324018083112)
(0.112863600098339 -0.0487080538699232 0.06883859451246)
(0.0175756528796466 -0.236592651438408 -0.350972319400221)
(0 0 -0.174837785773642)
(-0.0685218317351977 0.0887639421998198 0.232136206636005)
(-0.0297794614461565 0.119481273471358 -0.0423927650595505)
(-0.198308562891719 -0.022480302937699 -0.296479692208134)
(0.0786248837711718 0.0515746290291331 -0.228549470225686)
(-0.0408291591349523 0.275608603965706 -0.000979354374488179)
(0.178407160874147 -0.466017018007258 -0.159734434832568)
(0.226226577803414 -0.0173775545465092 0.14487365387312)
(-0.165382382760314 -0.217693093694748 0.192916605652289)
(0 -0 0)
(-0.0820627340959821 -0.0525348987049525 -0.155707162206364)
(-0 0 0.155099764232412)
(-0 -0 0.164059027884459)
(0.0780536315903548 -0.319274350880946 -0)
(0.0242279402284536 -0.127184743291366 0.0930822804353601)
(-0 0 0.127296687507792)
(-0 0 0)
(0 -0 0.15987962882473)
(-0.130695118970757 -0.0404999846692616 0.187516578920321)
(-0 -0 -0.109129264329223)
(-0.0216469449556339 0.154001495676563 0.000796684769878789)
(-0.015340495305805 0.125044642832823 0)
(-0.113972854050402 0.302231371791983 0.153808171702096)
(-0.0460641177474363 0.303136818514436 -0.266331245884416)
(0.02074417406037 0.128469781396982 0.255454704750773)
(0.0540156162560097 -0.277108650615321 -0.212763252703551)
(-0.0144610118069228 0.125424417918157 0)
(0 -0 -0.288855035600447)
(-0 -0 -0.0998684882221689)
(-0 -0 0.210359677846893)
(-0.0896600326601084 -0.0172942126289694 0.256660128624489)
(0 -0 -0.237680821157968)
(-0 0 -0)
(-0.151471196254238 0.0180099646323993 0.0897140724406895)
(-0.052731306250906 0.108029535241834 0.153011943092901)
(0 -0 -0)
(-0.0923996368064953 0.155338389649476 0.0445450459244218)
(-0 0 -0.298518241605277)
(-0 -0 -0)
(-0.0470393569212438 0.237830154648411 -0.595867762107483)
(-0.121573951284222 0.148696894523634 -0.422990600484802)
(-0.174106338166436 0.111709072972776 0.103476951336314)
(0.176762094463774 0.180805387595229 -0.112020159359041)
(0.110214301441872 0.0511764911827912 0.176250452009093)
(0.0815789005669776 -0.111096348051935 0.00283347684882032)
(0 -0 -0)
(-0 -0 -0)
(-0 -0 -0)
(0.00836854916800802 0.180523551340319 -0.160891669618798)
(-0 -0 -0)
(-0.0904051478722765 0.222664857252341 0.386188752914024)
(-0.0797194716818815 -0.27078594164565 0.0343719925133909)
(-0 -0 -0.199504136156325)
(-0 0 0.135500278892831)
(0.0633120034137049 0.155241518644958 0)
(-0 -0 0.135274263203761)
(-0.057390318349048 -0.0948563714670737 0)
(0 -0 -0.305130074874921)
(-0 -0 -0.179966494009172)
(0.0569965170163047 0.103662153915386 0.0628933645803333)
(-0.0237241584825869 -0.115039900798316 0.160075972189593)
(0.177668624542396 -0.0767552882431134 0.122524710000195)
(-0.00460576531281375 -0.234607170324991 -0.195030806354997)
(0.108890324609963 -0.13477609153509 0.395583347889286)
(-0.0853242371051797 0.0322087311171108 0.0564730862845545)
(0 -0 -0.115011780046692)
(-0.129910870027357 -0.123686201784337 0.515177338824824)
(-0.0273733901048432 -0.270522571663922 -0.138949529897929)
(-0.0246840561206165 0.181166546247033 -0.267098653483959)
(0.111177001326645 -0.0546541792166434 0.184655707369826)
(0.069074905388996 -0.12572588805909 -0.214228007681104)
(-0.138039972647226 -0.190080447349894 -0.0860463413007241)
(0 -0 0)
(0.189878041537667 -0.130602172797781 0)
(0 -0 -0)
(0.0845656450323441 -0.173827011608714 -0)
(0.0874937257053723 0.0358022103720367 -0.0856550390760326)
(0.0443795611647124 0.474088553779448 -0)
(0.172533358090022 -0.127776794763433 0.103922924702838)
(-0 -0 -0.148622034304431)
(0 -0 -0.269965922818969)
(-0 0 -0.232265588508702)
(0 -0 -0.162396124459184)
(0 0 0.0209507624966588)
(-0.203484495336306 0.0712858423789282 0)
(0 0 0)
(-0.0106322155706235 0.246920873352624 0)
(0.0329792102138344 -0.111118644730442 -0)
(0 -0 -0.269425362489588)
(-0.226701545270858 0.258112552882254 0.164298933044399)
(-0.160522679917455 -0.182940151292897 -0.130509921467033)
(0 -0 -0)
(-0.119557756243152 -0.117212208554088 0.150891935274875)
(0.201102389162195 0.0311524080125447 -0.284264492265134)
(-0.0476522947134993 0.168892262840085 0.142076682795912)
(-0 -0 -0.0932596055168528)
(-0.0883353074178137 0.179756741369732 0)
(0 0 -0.166195896809527)
(0.151234560548401 -0.0629604306385962 -0.20262289008082)
(-0 0 0.0948376406362021)
(0.0500693394029063 -0.249505333823777 0)
(-0 -0 0.344929052975495)
(-0 -0 0)
(0.0615216534748741 0.138388905146293 -0)
(0.134374324775119 0.123871497321662 0)
(-0.0546237504397152 -0.10394341369702 0)
(-0 -0 -0)
(-0.0822258349204761 -0.144101140653115 0.318123820318932)
(-0 0 -0.29459468314114)
(0.168763127303331 -0.0618033018771471 0.276243810998369)
(-0.171683311938256 -0.0411231151895451 -0.0274099030179912)
(-0 0 -0)
(0 0 -0)
(-0 -0 -0.0806672026785274)
(-0 -0 -0)
(0 0 -0.011091388730869)
(-0.0888634349485905 0.0401477200820994 -0.069622573044008)
(-0.0624291791541443 0.326676447630039 -0)
(-0.280105861094529 0.201993793484885 -0.187470653359255)
(-0.1319736823039 -0.118826626599368 0)
(0.155687109252685 0.209676111041959 -0)
(-0.0990536917778116 -0.143560182726772 -0.152022253870322)
(0 -0 -0)
(-0.0569877040588152 -0.0996959099278207 0)
(-0.192730861579991 -0.0843976118270264 0.114425821964642)
(-0.131263294403916 -0.00729229282990535 0)
(-0 0 0.26637121182561)
(0 -0 -0.0404982901779684)
(0 -0 0)
(0.0962562586879512 0.154037258601366 -0.152012211098941)
(-0.186747173291462 -0.000754150899200907 -0)
(0 0 0.272225191292575)
(-0.0250804888279127 -0.156547364697246 -0)
(-0.0948353352300098 0.145009491736006 -0.144443855024387)
(-0.0279245584136201 0.112011050760374 -0.141087599949654)
(-0.00137657247805213 -0.125513632563377 0.0448671322240406)
(-0 0 -0)
(0.270214489425334 -0.295333919013045 0.0582205659778426)
(0.0602210532906748 -0.159278185316639 -0.203076235526832)
(-0.0122865587906502 0.274519887742866 -0.0418428081668211)
(-0.109577556289563 -0.373650618704028 -0.256919200995464)
(0 0 -0.154063041963843)
(0.0298574798542396 -0.399966726543218 0)
(0.0784892428262906 0.116261582448921 0.207799634530295)
(-0.0872879020397249 -0.179204457301839 0)
(-0.1371546024168 0.320074904042563 0)
(-0.0456029918112551 0.189278577251915 0.228033316866183)
(-0 0 -0)
(0.222161113301367 -0.0591443737039046 0)
(0.0749850816886177 0.0649681804378702 0)
(-0.00113368195406391 -0.154914628846274 0.0241624613708326)
(0 -0 0)
(0.130115637311579 -0.0958743193590127 0.150691137014323)
(0.234858773303939 0.119295360718911 -0)
(0 0 0.140898725756405)
(0.0311673023584767 -0.123721056995381 0.177819923540063)
(0 -0 -0.177291719373972)
(0.103356421665018 -0.294550595166011 -0.0499111202559508)
(-0.267512005243952 0.0811028077020583 0)
(-0.136221908755628 -0.0618804696143048 -0.100885823845537)
(0.269253121162023 0.071823036274154 -0.198695531957944)
(-0.116935347418906 0.0284370880015398 0.00710308896039167)
(-0 0 -0.195405851498437)
(-0 0 -0)
(-0.0877193173106061 -0.0230264412520315 0.142750646683269)
(-0 0 0.145410113671723)
(0 -0 -0.160939653809547)
(-0.128368797369371 0.185375263526467 0)
(0.018682616899484 -0.161566956130866 0.422443444655964)
(0.0886944729864495 -0.0215296707343939 -0.293439050541645)
(-0.0856009682002701 -0.307735053149419 0)
(-0.135401906512598 -0.190279791635122 -0.0402684114522478)
(0.0407094499378651 -0.108027515914154 0.304852816421851)
(-0.234843580999085 0.109127685791933 -0.0634777889759332)
(-0.0909311794763192 -0.29241847929928 0)
(0.047735405403974 -0.106933056535383 -0)
(0.0139237176656072 -0.321317165534187 0.00856801564761912)
(0.144870037735559 0.0208557380257378 -0.675730480562367)
(0.0356211436335832 0.110337233028334 -0)
(-0.174016009230882 -0.198088436559152 -0.557967627120265)
(0.0921658629636635 -0.365268646777263 0)
(-0 -0 -0)
(-0.12660990229121 0.117013864282613 0.0868967390073365)
(-0.153287111406506 0.159839659388025 0)
(0 0 -0.0578837685919705)
(-0 -0 -0.300130565147596)
(-0.0708748959157941 0.177933310032826 -0.161031116558753)
(0.0771994078877837 0.1806572541367 -0)
(0.0593876447388504 0.165686903861701 0.293027179802211)
(0.0513033770216082 0.189045205469577 0)
(-0.036710734761793 0.192543075931387 0.423868744890647)
(0 0 0.054176641577252)
(0 0 -0.229791065463092)
(0.0812898324150112 -0.0494461480357894 -0.458211655707583)
(-0 -0 -0.197602396351271)
(0 -0 0.11457972323968)
(0 0 0)
(-0 0 0.181088477064502)
(-0.206744665904304 -0.0747783269091663 -0)
(0 0 0.0482600552567138)
(-0.43206766490276 0.133694288754245 -0.272073921053006)
(-0 -0 0.252199926840913)
(0 0 -0)
(0.0350692895532121 0.112825304599734 -0.127402835004408)
(-0.107370886084723 0.116777938975765 0.255070409949775)
(-0.0671626416757785 0.219005211304655 -0.181119160874307)
(0 -0 0.157847162037479)
(-0 -0 0.0859533945758509)
(-0.0797517327949662 0.162943812604204 0)
(-0 0 -0.353788942404857)
(-0.119174108187236 0.0280948124033028 0.332979782953157)
(0 -0 -0.151742222302419)
(-0.07910788425142 -0.110513503975199 0.218096479258681)
(-0.114497743875188 0.0977562071122737 0.177506060306093)
(-0.316453380904578 -0.0825250548049932 -0.322122533379638)
(-0.0475807777972533 -0.107046340292041 0)
(-0 0 0.121103767265739)
(-0 -0 -0)
(0 -0 -0)
(0 0 -0)
(0.0103113464112611 0.241971753489782 -0.123877018835103)
(-0.143810602784469 -0.330415377409206 -0.192454950074069)
(-0.0484609591067619 0.19328110541255 0.319145937019552)
(-0.0573072695684764 0.262406968346462 -0.142204972493126)
(0 -0 0)
(-0 -0 -0)
(0.154584365835959 0.0372163740359199 -0)
(-0.0529563497781579 -0.104460009048391 0.215761596278566)
(0 -0 -0)
(0 0 0.351900411761772)
(0 -0 -0)
(0.144896982148932 -0.0107241498826586 0.0532543855870505)
(0.0839895245760646 0.0594561871514892 -0.0629468440440784)
(-0.0152767975782688 -0.120006039090339 0.0269885834516794)
(-0.00564966976684915 0.128172267459882 -0)
(0.0884384487993892 0.130687241938553 -0.050112470649125)
(-0.0743061836453334 -0.1230842619711 -0)
(0.127095002654746 -0.0579385308013906 -0.242716659154347)
(0.0717920725423872 -0.0851445544270538 -0.303197685117486)
(0 -0 -0.118667366511955)
(0.165770667915704 0.0396545758433285 0.128756272835162)
(-0 -0 -0.237752763157485)
(0.0815003359352843 0.44225935642071 0.224345527422522)
(-0.195895692418904 -0.243119162828505 -0.22697341938721)
(-0.0905529046774422 -0.0199220267621222 0.0436755355911364)
(0.166854529690308 -0.100711524443165 0.518243337637206)
(-0.197640605877446 -0.0840690484514366 0)
(-0 0 0.232130794006173)
(-0.110373762433137 -0.12854268364252 -0.171113883341499)
(0.0794286214336115 -0.110637904635422 -0.196232551001407)