/*--------------------------------*- C++ -*----------------------------------*\
| =========                 |                                                 |
| \\      /  F ield         | OpenFOAM: The Open Source CFD Toolbox           |
|  \\    /   O peration     | Version:  2.4.0-MNF                             |
|   \\  /    A nd           | Web:      www.OpenFOAM.org                      |
|    \\/     M anipulation  |                                                 |
\*---------------------------------------------------------------------------*/
FoamFile
{
    version     2.0;
    format      ascii;
    class       vectorField;
    location    "0/lagrangian/polyMoleculeCloud";
    object      pi;
}
// * * * * * * * * * * * * * * * * * * * * * * * * * * * * * * * * * * * * * //


4298
(
(0 -0 0.213194414560278)
(0.120502277123711 -0.00032627095762357 0.342035143054706)
(-0.092217817901935 0.168720613959632 0.271333347258145)
(-0 -0 -0.297943651518628)
(-0 0 0.178100349223565)
(0 -0 0.200403734314296)
(0.0585178335928511 0.165303467681655 0.276213093255464)
(0.0860960924126046 -0.265057497479722 0.134408745624099)
(0.140348921907212 -0.254685343265697 0)
(0.0917972465993223 -0.00900021252822813 -0.0681953905615466)
(0.157214254679719 -0.113660043302364 -0.148232377560827)
(-0.0526434854163016 0.110042623847914 -0.278903588801504)
(0.0926229954283853 0.211211558704069 0.227191064631195)
(-0 -0 0.265491790986527)
(0.116479833284673 0.0911536714493124 -0)
(-0.0633148387761285 0.0982871187226331 0)
(-0.259681313936861 0.0961843643279297 -0.025324076043553)
(-0.177882434584238 -0.189922722737641 0.147217376041802)
(-0 0 -0.24764120506324)
(-0 0 0.289427379553442)
(-0 -0 0.141313054614976)
(-0.145238535337377 -0.170572124734861 0.2118053013463)
(0 -0 -0)
(0 -0 0.0428011290532853)
(-0.258050831721507 -0.106743046197009 -0.213934146174534)
(0.0441128315398544 -0.392265406357684 0)
(-0.0588290110047555 0.235569477702035 -0.105911455307026)
(-0.0149055326313918 0.182252876650416 -0.176191068825649)
(0.148912817648974 0.153057839366304 0)
(0.0926870260821901 -0.201675587070888 0.355834465218707)
(-0.0508156099913093 0.242842392568913 0.314725140147263)
(0.0834206822104382 0.0578029099691594 -0.329118981319536)
(-0.201853582818018 -0.129456930348966 -0.0617190950884364)
(0.0587573086308091 -0.0894544933643365 0.219648082342986)
(0 -0 -0)
(0.108474756647606 -0.0582537627125162 0)
(0.0718221218070626 -0.200989026183864 -0)
(-0.0876873826264188 0.0469216138316287 0)
(-0.0606413680694276 0.481671645189166 0.626691669591924)
(0.217461331478499 0.041032644184677 -0.321653578092106)
(0.0810249942258686 -0.048684221179582 -0.114872714211353)
(-0.119135268942049 -0.0109010881442481 0.0931403116029833)
(-0 0 0.311694855459289)
(0.268301828028553 0.0538732637570517 0.23788819713806)
(0.088156580610498 -0.109312774465218 -0)
(-0 -0 -0)
(0.104791992639489 0.0657046246113125 0.455316860256314)
(0.0413343538260696 -0.105085305937103 -0.0888108271896461)
(0 -0 0.39563414256127)
(-0 0 0)
(-0 0 -0)
(-0.114154104316826 0.0887295584190016 -0)
(-0.0365491910579938 -0.181441457002583 0)
(0.0643879441216249 -0.0880428717972122 0.191951432579894)
(0.0905496366785202 -0.0427930524967396 0.14650887549982)
(0 0 0.098040462013283)
(0.0452743496584921 0.105947168174294 -0.0733854808286701)
(-0.0777013597245856 -0.115786939990895 0.245201502507)
(0.0128820006808814 -0.154226563344532 -0.274805538685269)
(-0.184081879536921 0.0183316419894467 0)
(0.109253451332142 -0.047792641011188 -0)
(0.105537856643904 0.0817711062078292 -0)
(-0 0 -0.0284018568847731)
(0.0642524159589089 -0.139250576129393 0.133223084869155)
(0.097799118421483 0.188643352341193 -0)
(-0.185134452043516 -0.414678981711577 -0)
(0.094006071055508 0.296249596585482 -0.155358810822731)
(0.00650830313240981 -0.178310697244539 0.388125548225207)
(0.0893653905851882 -0.00156221253420706 0.144051573414062)
(-0 -0 -0.0428957718227706)
(0 0 0.169708484152666)
(0.0417711763486405 -0.114574602304049 -0)
(-0 0 0.0698583286503828)
(0.148846528887841 0.013463385126845 -0)
(0 -0 -0.223743512224634)
(-0.00352619204070322 -0.181618231274837 0.186964924219297)
(0.00135507169499132 -0.286960780672435 0)
(0 -0 -0.476652248953323)
(-0.0742436176796669 0.0686864104711997 0)
(0.214532772351499 0.324907450808852 -0.125040951515771)
(-0.29276219600129 -0.034785721185791 0.368719761305554)
(-0 -0 0)
(0.0671589410575517 0.171469316141472 0)
(0.170545141894671 -0.0701272522184808 -0.115939993950685)
(-0.082992341521715 -0.30006360730641 0)
(0.187016616026179 0.182625653244471 0.260795756065714)
(-0.000328589241767915 -0.254618832549957 0)
(-0.086633697002578 -0.00893093552835502 0.176214087977986)
(0.131720086108553 0.00965832241851987 0)
(-0 0 -0)
(0.169865498848418 -0.0451684852701194 0.363452420440909)
(0 0 0.135252961107049)
(0 -0 -0)
(-0.11982639433037 -0.334190799518274 0.297318105125059)
(0 -0 -0.0581532645003337)
(0 0 0.144603713665231)
(-0.0882374248168011 -0.290204040999096 -0.255864753596358)
(0 0 -0)
(0.157202629095647 -0.0220119827212038 -0.405850673935556)
(0 0 0.16409605152883)
(0 -0 0.0510638588859758)
(0 -0 -0.0924493658360167)
(-0.118729185471669 0.135398806412768 -0.139592306523467)
(0 0 -0)
(0.0853418820988486 -0.135129352495686 -0.149119960962712)
(-0.0527523977116852 0.0982132153635356 0.205962870566544)
(0.161858752958031 -0.230699390051366 -0.139227857745692)
(-0.0758509134609696 0.128367761979807 0.315581222087717)
(0.0809530593372211 0.0634090491468941 -0.278695211341351)
(-0.138986276180341 0.176449246844485 -0.135663783055109)
(0.00810230608274361 -0.269704861495746 -0.143041843002115)
(-0.128577891847351 -0.172998641813885 -0.191388595451706)
(-0.233222573125559 -0.290890762482043 -0)
(-0.00931186548845714 0.200897463663915 0.185446533742759)
(0.132038655755502 0.00811079370643634 -0)
(0 -0 -0.273992342782024)
(-0.0143719260539649 0.126633499866669 -0.325981255799062)
(0.147110480766027 0.310249632049171 0.157719650879825)
(-0 -0 0.312371137973586)
(0.150443869367874 -0.0614328480903525 -0)
(0.134061354540822 -0.300232924404788 0.182033070895592)
(-0.0432914735621485 0.105271900233442 0.23219877889259)
(0.162947405042278 -0.0244935083105045 -0)
(-0.117572101671382 -0.0952634877805043 0.0873726553049261)
(0.0896109376233903 0.0200636867789878 -0.340575538288041)
(-0.0882757300010739 -0.0199421887609714 -0.0124200707398951)
(-0.114004619865304 -0.0288226280833582 -0.157200995730112)
(-0.227748018428027 -0.150216340256183 -0)
(-0.0907996500032375 0.0102200520444784 -0.369273472081631)
(0 -0 -0.203787260587063)
(-0.0729666289952176 0.310125153958455 -0.0675312132083273)
(-0.129592758976592 -0.0842442526885054 -0.0336827540061246)
(0.0918325279600334 -0.00579999923897958 0.0148043774068252)
(0.102202593980019 0.321571995815586 0.337962580215101)
(-0.231533140028215 -0.145062055893635 0.258349348863674)
(0.0301079709947258 -0.160668855183869 0.226465717975557)
(-0 0 0.218280635440687)
(-0.115124184111289 0.0133564537793653 0.00816621325474729)
(-0.0260390392396858 -0.115249105104455 -0.217858591238701)
(0.144433498846809 0.148205753845837 -0.0629677679726792)
(0.00104327938146528 -0.155398380138821 0.37905154865357)
(-0.00338408666550416 0.217194211366044 0.134759479987495)
(-0.115357198046745 0.283696373860006 -0.269594613503045)
(-0 0 0.286602028183047)
(-0 0 -0)
(0.0106335052788908 -0.181823013006541 0.0218463632354201)
(-0 0 -0)
(-0.0416456050329694 0.155429510533682 0)
(0 -0 0)
(-0 0 -0)
(0.0566351155312627 0.289364198375757 -0)
(0.161890771466616 0.147963661304477 0.0213427633064264)
(-0.0829150147607503 -0.0480998199149838 -0.0899970408797808)
(0.0691904627794613 -0.0899990240153175 0.407073809228481)
(0 0 -0.225528496022364)
(0 0 0.309439196543378)
(0.0512909998536928 0.327788857954543 0.241167008289592)
(0 -0 -0.391564611288838)
(0 0 0.188802506302915)
(-0 0 0.192726905595725)
(-0.114366979665306 0.189643347034226 -0.319070445875224)
(0.23725599953788 0.0385016918401551 0.0874274129245306)
(0.319946468042341 -0.0161043596171912 0.11181619172671)
(0.0856738177235576 0.172680726125529 -0.241040116200691)
(0.231985274944948 0.193652270448885 0)
(0 0 0)
(-0 0 -0)
(0.0752067682579462 -0.147752027949668 0)
(-0.116841505858423 -0.121740805776397 -0.195887821708369)
(-0.0897536725234681 0.105102891201845 0.166596563632706)
(-0.181542126319016 0.214597817483513 -0.141278852875476)
(0.0419676296294351 0.115202055178763 -0)
(0.0806232311541298 -0.117756821157976 -0.429866102433101)
(-0 0 0)
(0 -0 0)
(-0 -0 -0.0480382970750788)
(-0 -0 0.489865037639637)
(0.0803589063788233 -0.275750023990699 -0)
(0.237811356272583 0.0692616208170542 0.0315038869927216)
(-0.22969368256785 -0.0550695685965546 0)
(0.0686587855594012 -0.0717574022817647 -0.187490865463019)
(0.0920104316979569 -0.0919968409742683 0.147993265963734)
(-0.111982807828876 0.203080802836565 0.240791090277223)
(-0.0634252181572046 0.159503430513256 -0)
(0.0754185525773362 -0.16933512034556 -0.320452654302617)
(-0.175369036784713 0.124692292083974 -0)
(0.0518052520083337 -0.234996836945718 0.0948897172393661)
(0 -0 -0.124210729493331)
(-0.0353755473419231 -0.113340870555849 -0)
(0.0810455055142557 0.314778410097408 -0)
(-0.143664997297642 0.0904601379780293 0.190828038398107)
(0.0185447772039768 0.12539756039231 -0)
(0.145789292335695 -0.011137580624199 0.39196950268145)
(-0 -0 -0.143218539019848)
(-0.0805832025829892 0.194629298910623 -0.107085361673983)
(-0.0274673887758196 -0.125960066216666 -0.362727159217207)
(0.131618909722104 -0.143278452448513 0)
(-0 -0 -0.101249541026426)
(0.0551441095989169 0.0931984208624396 0.0365815963617144)
(-0.129211925008476 0.0147453146404632 -0.241401300030228)
(0.0319750034816231 -0.250170309378484 0.414135579032856)
(0.0161735602087303 -0.254493058570673 0.0459344771648368)
(0.220535751650472 -0.249558778958187 -0.0298563257727781)
(0.0420445303753863 0.113794095762359 0)
(0.15369687504242 0.0932726296382565 0)
(0.0847561723471783 -0.058805772463144 0)
(0 0 -0.20107052232503)
(-0 -0 0.024747168795646)
(0 -0 -0.205965822331492)
(-0.0877177791125506 0.108772343683433 -0)
(-0.190988014554744 0.261446940895298 -0.0115508769185761)
(-0.0861755327007877 -0.0140552281313444 -0)
(-0 -0 0.130101630887734)
(-0 -0 -0)
(-0 -0 -0.188987351681289)
(0 0 -0)
(-0 -0 -0)
(-0.0135329683429801 -0.124823785444998 0.150538274068614)
(0.113685127529677 -0.39254184400658 0)
(0.176280177661921 0.0162647527384957 -0)
(-0 -0 -0)
(-0.174486725383886 -0.0947211406661441 -0.155165311227674)
(-0.0840611179501134 0.184121653253364 0.154528664974194)
(0.148185788646395 0.149244156516603 0.237563495960069)
(0.219878572797498 -0.121227055957513 0)
(-0.000906899711342834 0.12838036812218 -0.330656349111425)
(-0.0499938764267022 0.21855446245887 0.181812576405557)
(-0.141397225238032 0.0460486477038176 -0.128598025043932)
(0.0728581432787341 0.0636078161188603 0.327719318406884)
(-0.0648354564569413 0.231961331428243 0)
(-0 -0 0.157122874010225)
(0.128232032303946 -0.0569383690174862 0.140517047618646)
(-0.161562301748648 0.0310396313149142 0.398436338529422)
(0 -0 -0.106239587413585)
(-0.12099957410375 0.0785756574556047 0.142294434350137)
(0.190156324127007 0.00115877705373858 0.0409291304848358)
(0.0461926167374559 0.235812549009764 0.40345816515171)
(-0.155968533969729 -0.215912282952543 -0)
(-0.019234255711902 0.177317563020646 0)
(0.028242914109608 -0.118965150650849 -0.280021185302667)
(-0.163230006253791 0.260419354629493 -0.259461464735059)
(-0.0881551860182088 -0.142381229893785 0.111345082896236)
(0 0 0)
(0.0975106321106653 -0.149985923395947 0)
(-0.290422042046115 0.0989073355047067 0.442443104253271)
(0 0 -0.0834691857287861)
(-0.195011654573792 0.302454835706039 0)
(0.0321903805414071 -0.422868280370638 0)
(-0.155097032827939 -0.0250199627609878 -0.204063951521118)
(-0.0115297974841374 -0.15493833294072 0)
(0.138187581390199 0.184861322757038 -0)
(0.0174894994072235 -0.237342900424251 -0.242277810480294)
(-0 0 -0.144423062094501)
(0.0939611919466949 0.0101299500701949 -0.186508806786264)
(0.103704787226684 0.176338981768966 0.00465410522508071)
(0 0 -0)
(-0.0318340039004576 0.415980032980509 0.101089022429728)
(0.11012886703612 -0.209474946806042 0)
(0.00697665248811415 0.129351809433146 0.187976056146992)
(-0 0 -0)
(0.0267909384785733 -0.121032123121846 -0.0966502122752344)
(0.0676941709688863 0.133758038207322 -0.196547296083382)
(-0 0 0.219460052895201)
(-0 0 -0.23761138832154)
(0.257203713638258 -0.0586444330143447 0.0700220247813368)
(0.0958330346983156 -0.482087503412742 0.226893572562609)
(0.109716188035652 -0.0464775760741911 -0.130814850917118)
(0 0 -0.0817156464464449)
(-0 -0 -0.0992087698869447)
(0 -0 -0.274470473400042)
(0 0 -0.143097937427978)
(0.127738427262847 0.0934930219310551 -0.265615979886973)
(-0 -0 0)
(-0.0680852840352657 -0.199036161805268 -0)
(-0.0108929974778364 -0.431894875300576 0.0233654063780077)
(-0.258021560137852 0.0535100247092911 -0.0306577873407362)
(-0 0 -0)
(-0.110759489850708 -0.147244863347183 0)
(0 0 -0.527893314030464)
(-0.106176378816167 -0.0753091392611225 -0)
(-0.258267693581685 -0.21603024447556 -0.0637248108120031)
(-0 -0 -0.136652503086846)
(0.0792875506694286 -0.0515164491235042 -0)
(0.100765254677303 0.197957592240132 0.0959300721364522)
(0 -0 0.140593719880661)
(-0.0904415157984738 -0.255445293246698 -0)
(0.0966125061613901 -0.0926704691345196 -0.13545103479921)
(0.139615894382944 -0.176259575725705 0.153529186975712)
(0.0720400985530765 0.129978140177017 -0.0792045136317475)
(-0.0556798022551158 0.0928916473374343 -0)
(0.188729127596301 0.122940051022019 0.352277136174644)
(-0 0 0.26486958476322)
(0 -0 0.0598670568815606)
(-0 -0 -0.0666925432874379)
(-0.0459269498748737 0.109182492275103 -0.118479500031932)
(-0.0588479314778301 0.287977259209905 -0.120786745845473)
(0 0 0.0294009444507056)
(-0 0 -0.0636597434904855)
(-0.029855279134494 0.207826729155593 -0.131535480053488)
(0.0771963165237278 0.144019673866205 -0)
(-0.0767225841999543 0.0586287172100173 -0.104342193809656)
(-0.117678086601611 0.00853176738601366 0)
(0 -0 -0)
(-0.113988230221315 0.122209215549494 0.0357799897057984)
(-0.14808522731819 0.105811889653828 -0.00354404875715805)
(0.0202319223188631 -0.116439686585463 -0.180691380231663)
(0 -0 -0.12602535601354)
(0.0885985757826472 -0.198601930240135 0.206845654482457)
(-0.111767092014359 -0.125738872590905 -0.177144438887287)
(0.203901819230618 -0.0790186325410723 -0.195704194184665)
(-0 -0 -0.0150857614316699)
(-0 -0 0.162667626390669)
(-0.0325907021236078 0.176258186702173 0.452362591719504)
(-0.14370735100306 0.0867294107610034 -0.0278529234157111)
(-0.0338449587143113 0.122437937806464 0.157787498462036)
(0.035455775298049 0.438198683360825 -0)
(0.0856859220916307 -0.0433663364972021 -0.196340428185221)
(-0 -0 0.0249973724657543)
(-0.213521806750791 0.0905634249481762 -0.0988265432181572)
(-0.222134833934605 0.11166913372285 0.233253010773005)
(-0.0493674980433378 0.460732637830357 -0.231120966806972)
(0.0351735053927821 0.111854808204332 -0.0883601161575787)
(-0.133997346728723 0.00808172856882662 0.12197727412539)
(-0.167889106559864 -0.0503169710115642 0.135315732003532)
(0 0 -0.445318128805562)
(0.0171474265629208 0.221587900414306 0)
(-0.109006247076979 -0.346602381708539 0.136464602035587)
(-0 -0 -0.0100349665902514)
(-0 0 -0.207531999233101)
(0 -0 0)
(0 -0 0)
(-0 -0 0.120731329450635)
(-0.0562605984493823 0.309203241988999 -0)
(0 0 0.0217331539956551)
(-0.21140558238345 0.152068220045826 -0.135886569653614)
(0.155374930910581 -0.042602130777917 -0)
(0 -0 0.282614846419601)
(-0.00872326261380355 0.343214695500301 -0.476989405609123)
(-0 -0 -0.0699294280473612)
(0.106308203896288 -0.0623136658364594 -0.16516665681907)
(-0.096971067768016 -0.0875053089426612 0)
(0.148203442622268 -0.132456405948791 0.202613617074939)
(-0.122997099545618 0.0777790020126499 0.118618310008411)
(0.156008215852343 -0.248256969032064 -0.220137873075721)
(0 0 -0)
(-0.0236632405903704 0.115388935653706 0.378219297906255)
(0 -0 -0)
(0.0738911083352599 0.0824210397131633 -0.0176911775090037)
(0 -0 0.137160012972013)
(-0.0172683488929942 -0.123317100110302 -0)
(0.0233647907695305 0.209941136464697 0.0336547596936899)
(-0.289470830651554 -0.172355661678628 0.168285102904176)
(-0.156477357435191 0.0435482997054476 0.14377583324762)
(-0 0 0.110820467578726)
(-0 -0 0.160088722612096)
(-0.0705172646914951 0.0874037645253849 -0.0328793395005699)
(0 0 -0.143879548132288)
(0.164781905233505 -0.146685481620429 -0.123110167046306)
(-0.0577917952103245 -0.134144896205291 -0.146291656630557)
(-0.0163338422065559 0.233268244934605 0)
(0.0697202451806123 -0.180735334148989 0)
(-0.225761251496143 0.311045243280825 -0.000418945876291201)
(-0 0 -0.164376525949929)
(-0 0 0)
(-0.164398071777051 -0.0172050910987007 0.224113094234866)
(-0 0 0.0995017873149661)
(0.209701426844411 0.211274739190702 -0.193790064421529)
(-0 0 -0.184068968966267)
(-0.0926151073058487 0.0119468885284826 0.290206247484429)
(0.132912334958974 0.263203681226993 -0.107544321505567)
(-0 0 -0.163220713997316)
(-0 0 -0.201137413808555)
(-0 -0 -0)
(0.20919491859137 -0.109830083632887 0.390360709131182)
(0.104117916248864 -0.122734403149274 -0.280278450585128)
(-0.19270756389558 0.0595965935507103 0.142418808193265)
(0 0 -0.154732375680055)
(0.0404043227546739 -0.14853292911142 0.285253712641038)
(-0.117072949182603 -0.00899602277967625 0.399763398829604)
(0 -0 -0)
(0 -0 0.203052849283801)
(0.114353865110368 -0.166772324371836 -0.175570418491866)
(0.128111846299319 0.0871855955063841 0)
(0 0 -0)
(0.0943776645918764 -0.133972821932132 -0.205466628824464)
(-0.0766105754599866 0.149261887573058 0.112018300122442)
(-0.169591636805989 -0.0313434812237713 -0.113454418019621)
(0.0316020915234616 -0.113833349001908 0.142390478490504)
(-0.169637864195747 0.0461659109181681 0.211133844036121)
(-0.0712467402443102 0.292195170405453 -0)
(0 -0 -0.213463230150721)
(0.145080279362999 -0.138008595285822 -0)
(-0.0541153347110357 -0.0962284429464638 -0.322454947888711)
(0.187905888062663 0.0676109365641333 -0)
(-0 0 0.250821700629958)
(-0.0394955228427596 0.249608401886606 -0.107240761669055)
(-0.255112564146148 0.249849906158571 -0)
(0.156834142893533 0.200719862852601 0)
(-0.106682837543783 -0.0519007927642787 -0.135268942401223)
(-0.109005641632812 0.0458603165270967 0)
(-0.0395375599923461 0.146116487890027 0.216351135978112)
(0.112597437687582 -0.0554200706021875 -0)
(0 0 -0)
(0.0690823867267718 -0.0902444151528766 -0)
(0 -0 -0.0223960451093095)
(-0 0 0)
(0.192889603206998 -0.189240957947807 -0)
(-0 0 -0.0339050500768442)
(0.0178272339116909 -0.50404231859419 0.00221167522053626)
(0.170004743827484 -0.0704008537261982 0.0313474661203154)
(-0.0859132370928472 -0.191656470337497 0.29028042843416)
(0 -0 0)
(-0 -0 -0.160702671627268)
(0 0 -0.328865546172368)
(-0 0 0.285405679701617)
(-0.100078114509797 -0.0738260418752709 0.288622835158076)
(0.0214918610160941 -0.163326823969541 0.344809634237442)
(0.136195883750962 0.140035467182658 -0.352663080082024)
(0 0 -0.207192516771213)
(0.153326133553328 0.0107212783736693 0.214765650079238)
(0.031047170263273 0.235737375118411 0.0725284425540228)
(0 0 -0)
(0 -0 -0.108062322278706)
(-0.154939519330766 -0.151570848994811 0.15645698164449)
(-0.0489280851392033 -0.103360443033126 -0.0567093769080619)
(-0.179022051213884 0.105877762227275 -0)
(0 -0 0)
(0.133122283135877 0.251711279239401 -0.028779610724111)
(-0.150539417760165 0.367609392686428 0.0994734647486668)
(0.0861396730916864 0.00654827195565064 0)
(-0 0 -0.0277164974509287)
(-0 -0 -0.333032531404697)
(-0 -0 0.294125670877537)
(-0.0922882628135391 0.0947341414497577 0.308789912461642)
(0 0 0)
(-0.217945814703642 -0.0728620615537354 0.286394953010566)
(-0 -0 0)
(-0 0 -0.322440492420793)
(-0.0614190038506359 0.138028903617176 -0)
(-0.165237253513171 0.176038312921375 0)
(0.131224756302659 0.00556601549612468 -0.243842576654814)
(0.103062847780804 0.13973423319596 0)
(-0.146994579850824 -0.155637846467854 -0)
(-0.209812267831468 -0.0756811046341501 -0.183315178181511)
(0.0852796333015335 0.0438292524595851 -0.0238424856817792)
(-0.0536845859287462 -0.0952593669206621 0.220061081259247)
(0.0712251982895062 -0.0796264129777569 0.337103543792769)
(-0.102042191750254 -0.0755686567115709 0.43831705782187)
(0 -0 -0.0141833759186187)
(-0.0700849815523588 0.16076587774749 0)
(-0.0995395973367803 0.0829168490976557 -0.101946907672116)
(-0 -0 -0.134598483684087)
(-0.0365554580648577 0.117208475881828 -0.254861382535348)
(-0 -0 -0.0306960277785853)
(-0.191108964141982 -0.019155898515326 -0.0460566685962239)
(0.117309081429229 0.0984734855560663 -0.0618460014691061)
(0.154729965473899 -0.0410187181134039 -0.40312044983579)
(-0.0511323139150675 0.16831693224813 -0.0783035775324346)
(0.105708887392888 0.177088794495328 -0.297119620155134)
(0 0 -0.290607395895943)
(-0 -0 -0.150513058866447)
(-0.0208779750236053 0.125122832001529 0)
(-0 -0 -0.349029346726841)
(-0.0703445541010148 0.12780941593038 0)
(-0.0149709843995378 0.286665114175241 -0.208919238114928)
(-0 -0 0)
(-0.038076755059598 0.117313795016074 -0)
(0.0274132174038519 -0.223315987804976 -0.490610096483314)
(-0.200310759888317 -0.0216846678434902 -0.00760616914378914)
(-0.185078940906552 0.0895129083328673 -0)
(-0 0 -0.218065814111554)
(0.109997180604077 0.154768651955059 0.451989460446458)
(0.0602362673743626 0.0858749401040052 0.28985987531579)
(0 -0 0.219733914618733)
(0.143233647029845 -0.0124207315295397 -0.155574189241372)
(-0.128376175985206 -0.0255289591550694 -0.218477072765252)
(0.12798406180098 0.0273445437138413 -0.173483006217571)
(-0.119866833336552 -0.0197355253298009 0.0519226017347396)
(0.190423763105388 0.0237040351057454 -0.0342310239934441)
(0.0477812311624595 0.104186816200213 0.0616494000913844)
(-0.0193794023697084 0.195566183688939 -0.241479973413975)
(-0 -0 -0.0305919337444322)
(0.14287589302632 0.170715670242722 0.160832757915939)
(0.084714174605829 0.0556195215619898 -0.00552236738557485)
(-0.0317568429598988 -0.21273054931879 0.221921711449411)
(-0.0415440487043322 -0.311763024525901 -0.47171142357656)
(0.130036359499928 0.0835444732140317 0.169855111556732)
(0.120803244243685 -0.146839648543773 0.146500870416085)
(0 -0 0.351665515306347)
(-0 0 0.0807054559534602)
(0 -0 -0.179604522056091)
(0.0623402906662098 0.0916570001977125 -0.287279079453455)
(-0.240977957942644 -0.02067796796226 -0.0354821047919623)
(0.0569794264119378 -0.218192692412777 -0.293063753130052)
(-0 0 -0.242300977202348)
(-0.086717741418907 0.0515527539049414 0.357702756729538)
(-0.130394432777512 0.107874245670954 -0)
(-0.102307155101518 -0.0760842606071075 -0)
(0.221830036876463 0.0516539406633505 0.238641632189963)
(-0.118056847528576 0.0257859171497371 0)
(-0.188544169726468 0.0555758763908688 -0)
(0.0594849870330754 -0.363171616893851 0.306650573746545)
(0 0 -0)
(0.0917007550239232 0.0189204476870979 -0)
(-0.15866586284049 -0.0964482703015274 -0.11255401846105)
(0.112716562651503 0.132800621091927 -0.210345971804655)
(-0.0594884581980654 -0.10235337102434 -0)
(0.0915411460271189 -0.352871455106084 0.245414267395817)
(0 -0 -0.201117353481439)
(-0 0 0.161133726224724)
(-0.115315030267826 0.00733235434528568 -0.297311338668365)
(-0.0389790353402861 0.115070458914604 -0.0471675169159883)
(0.0203157627290552 -0.272441807822451 0)
(-0.0401013157860221 0.117923009924189 0.237949286711212)
(0.117832765812491 0.132358870831278 -0.176804434450191)
(-0.123732613055201 0.0712554367832391 0.22983017443554)
(0.0291285849408916 -0.196582132642328 -0.213793236542987)
(0.0185658326308408 0.123110936049897 -0.486641134414325)
(-0.0754254174085087 -0.144799543668161 0.115079470703688)
(0.0518941111100973 -0.100912368941038 0)
(0 -0 0.439292673937898)
(0.143573416660006 0.348089377118882 -0)
(0 0 0.35317267426934)
(0.0897847949741429 0.00348397450281465 0.420383015352773)
(-0.0374876012928294 -0.107588601245604 0)
(-0.0399865200478086 -0.115408873152894 -0.0855723739128405)
(-0 -0 0.275375764595798)
(0 0 -0.219487805737536)
(0 0 -0.0443223870401665)
(0 -0 0.188448606892801)
(-0.0625833878246172 0.0919265650962914 0.155850741125987)
(0.182312308004505 -0.0602533366008157 0)
(0.112581517168754 -0.0301702622505864 0.00378257547719826)
(-0 -0 0)
(0.211336218682713 0.00930166616116582 0.0321059751345369)
(-0.131120992816788 0.000387527025003573 0.402421363531852)
(0.0230902990258772 -0.178542593560903 -0.46280194282825)
(0.114095696220988 0.0146630868227745 0.025702161882992)
(0.0224668212170454 0.11712654461363 -0.252497737387321)
(-0.195274893091015 0.0813781779128847 -0)
(0.0795367566425496 -0.0625452551310454 -0.220885575313013)
(0.177298094504793 -0.0315080781986436 0.0781996891090729)
(-0.164571124493574 0.0668146279574666 -0.0438850982299062)
(0 0 -0)
(-0.0698702762425769 0.124548108190301 0.146982986170456)
(-0.025402068787314 -0.125976939207787 -0)
(0.00905641791884355 -0.118859967297974 -0)
(-0.153624304769418 0.202033861256886 -0)
(0.298660492312619 -0.0384637192128979 -0.336628886460806)
(0.0780917557062846 -0.0511870075637208 0.262164255696953)
(-0.118547352116056 -0.0333273192266137 -0.386637344488358)
(0.142398781300417 -0.0607565635094952 0)
(-0 -0 -0)
(0.0705169782325304 0.0829222863618016 -0)
(-0.0270144928882893 -0.121953215706764 -0)
(-0.0321033406607817 -0.119500293386646 0.060447855519603)
(-0.00587619248108541 -0.252074171793131 -0)
(-0 -0 0.120659996945619)
(0 -0 -0.12836581996728)
(0 -0 0)
(0.215258637637591 0.128045820822909 0.172847801696106)
(-0.278622616294156 0.0815044466471303 -0.298076608892935)
(0 0 0.1806804201059)
(-0 -0 -0.184697826257004)
(-0.149482938194421 -0.208380585394175 0)
(0.134495684113475 0.207233929032038 -0)
(0.186334017208612 -0.0578068568321807 0.139512540545864)
(-0.0875961781218925 -0.0113145827486625 0.194186143097742)
(0.148815874667293 -0.358968087307565 -0.22862739586201)
(0.175487993355827 0.185266430172374 0.142045284504373)
(-0.0667812214052868 -0.172901279044088 -0.0739015225693964)
(0.0723602418603976 -0.233806543928902 -0)
(0.0350109440990455 0.227170584788639 -0.0874376011047793)
(0.185288802644002 0.153775033059621 0.330123922615196)
(-0.173681607611904 -0.21478598309579 0.041808002169232)
(-0 0 -0.0268013683840858)
(-0.153444873785339 0.130351130941918 -0.337494875279169)
(0.0313989458686091 -0.148892558167999 0.399577435873837)
(0.0189405133428773 -0.183950188083026 -0.154946669645768)
(0.121486930985057 0.176837158064001 0.289763414242886)
(-0.0614532152051945 0.0978423770016844 -0.110277383774482)
(-0.146199181768937 -0.0689912133414653 0)
(-0.0887790873356498 0.00724771614221925 -0.152951010726935)
(0 -0 0.22167774255226)
(-0.0466870256142282 -0.106832031541788 -0)
(-0 0 0.244602370383331)
(-0.000648810525258687 0.247719166084577 0)
(-0.0873704450541947 -0.137169818974827 0.110300072713297)
(0 -0 0)
(0.0500569843648398 0.186033698907396 0.263721366728206)
(-0 0 0.315407576186592)
(0 0 0.147944034258861)
(0.093544177080479 0.197657945196637 0.112377330472388)
(-0.0377946991120292 0.180911814917407 -0.473703880894042)
(-0 -0 -0.11836328215429)
(-0 0 0.0474785635839099)
(0 0 0.299544964694376)
(0 0 -0.152544891789147)
(-0.102051296970346 0.181321466872804 0)
(-0.0605741643261233 0.251654725875827 -0.227903761852867)
(0.0499076646014028 0.212178132030734 -0.0482723354744097)
(-0.0938895406705596 0.257670173915976 0.367983630753628)
(-0.239021196899565 0.171262666258726 0.400907253635769)
(0.132612680982379 0.0409006388776448 0)
(-0 -0 -0.0789136013568231)
(-0.0869517192554649 -0.104137797492976 0.049783883753116)
(-0.0734472623370782 -0.127172076144854 -0)
(-0 0 0.0827390903897871)
(-0.0996336452758072 0.149278936546941 -0)
(-0 0 -0)
(0.0551862526751559 0.355877507945862 0.267145157689708)
(-0 -0 0)
(0.0934681114226857 -0.102445096043771 0)
(-0.132050785398796 -0.0504910325618664 0.137620435932802)
(-0 -0 0)
(0.0689744035307099 0.082259211997262 0)
(-0.211336327768321 -0.283812791165805 0.150389975262461)
(-0.0496635383073105 0.102324999587368 0.219666219350016)
(-0.0713132046558671 0.119610630208661 0.404996764263376)
(-0.0871748317667499 0.114971151340819 0.235259048930486)
(-0.186300036409563 -0.216154905063373 0)
(0 -0 -0)
(-0.0365260632423667 -0.356814648271952 -0)
(-0 0 -0.0173252681525324)
(0 0 0)
(0 -0 0.083574730162891)
(-0.140148076199972 0.199145205662638 0.100466417640289)
(0 -0 -0.236263094393786)
(0 0 -0)
(-0.0308461424136586 -0.119854726026527 0.241173704797175)
(0.0839363414211177 -0.344672899870423 0)
(-0.202346861112232 0.213875846402482 0.221674057956091)
(0.0532412048604821 -0.184011531950116 -0.124249185028689)
(0 0 0.00197233554471361)
(-0.170363973495245 -0.0342520018354477 0)
(0.117998669209182 0.363302217839703 0.161750171623801)
(-0.217384322873105 -0.0417388784985659 -0)
(0 -0 -0)
(-0.299040159040535 -0.0230041112538893 -0.238474245913026)
(-0 0 -0.311877688540376)
(0 0 -0.147476444308963)
(0 -0 -0.00187827248349942)
(0.0905164370824783 -0.18574005721282 -0.224580022806279)
(-0.100004949920911 0.124838856372414 0.500297426354779)
(-0 -0 0.0122874963070316)
(-0.205660844519166 0.0520103575663338 0.092317713865856)
(0 0 -0.0728023505367273)
(0.0917998134294275 0.0146561945769813 -0.106162929391906)
(0.0675560217964031 -0.179055826753666 -0.247136919503196)
(-0 -0 0.272121493883363)
(-0.0421226272631847 -0.172098953156298 -0.309804195404358)
(0.0256288583603134 0.118145949341747 -0.226590581572124)
(0.123253817225928 -0.0781122116441024 -0)
(-0.0205960537736139 0.12335490316389 -0)
(-0.0884255864189203 0.0291013401066315 0.248037027537516)
(0.0504684146509249 0.105948900884893 0.201031174584096)
(-0 0 -0.173143490030201)
(-0.18190154401149 -6.48095881625388e-05 0.114212560653443)
(-0.167488676149356 0.0371234051705728 0.178155426057122)
(0 0 0.343910250147659)
(-0 -0 -0.237360384198436)
(-0.0160330571874149 0.193280583626229 -0)
(-0 -0 0.160628993487662)
(-0.0424513958680401 0.191165219200968 0.401237078031273)
(0 0 -0.202216266746771)
(0.0293221911094083 -0.151590880694588 -0)
(-0.104704471396457 0.296040638552082 0.210817552486175)