/*--------------------------------*- C++ -*----------------------------------*\
| =========                 |                                                 |
| \\      /  F ield         | OpenFOAM: The Open Source CFD Toolbox           |
|  \\    /   O peration     | Version:  2.4.0-MNF                             |
|   \\  /    A nd           | Web:      www.OpenFOAM.org                      |
|    \\/     M anipulation  |                                                 |
\*---------------------------------------------------------------------------*/
FoamFile
{
    version     2.0;
    format      ascii;
    class       vectorField;
    location    "0/lagrangian/polyMoleculeCloud";
    object      pi;
}
// * * * * * * * * * * * * * * * * * * * * * * * * * * * * * * * * * * * * * //


4298
(
(-0.291119013299273 -0.246573616418694 0)
(-0.0665125955341545 0.271929746001381 -0)
(0.379053201888787 0.043784203179224 0)
(0.0309478033450434 -0.355295343860577 0.119746367255557)
(0 -0 -0.166584010703698)
(-0.0738104266800116 -0.17456160943864 -0.281545156202701)
(0 0 -0.196554545993946)
(0.022812243909061 0.182776952088665 -0)
(0.0911900408432116 -0.302029963115837 0.249091434158109)
(-0.160821313563645 -0.142292021566507 -0.0296325450044537)
(0 -0 0.330650402763734)
(-0.0901846575366729 0.0318080670987664 -0)
(0.140893057700392 0.13698461037384 -0)
(-0.153878900892987 0.0390004674477353 0.10525094529416)
(0.0386848658598835 -0.469829877696175 0)
(0.146939345206892 0.292218328649496 0)
(-0.0523003500871092 0.236822053168894 -0)
(-0.231429853887276 -0.00673538090105111 0.252995756112451)
(-0 -0 -0.101051447083118)
(0 -0 -0.04238306909909)
(-0 0 -0)
(-0.147996290634414 -0.188577674865267 -0.200827035022313)
(-0.156723191426215 -0.0438633361886538 -0)
(0.112173544113317 -0.0540457533898566 0)
(0 -0 -0.131906051317862)
(0.0872583733355766 -0.200723968661951 0.19414917605882)
(-0.0448829276538422 0.167921902329984 -0.0992777234197365)
(0.172427122523325 -0.312498437291222 0)
(0 -0 0)
(0.0951443639189788 0.0161688858602779 -0.257368674320231)
(-0 0 -0.271877922398502)
(0.16547973734768 0.0641872933357412 0)
(-0.11246258879858 0.0593478372340936 -0.325411652425579)
(0.0203208957763463 0.157972799943364 0.0900135033541343)
(-0.00115871576506714 0.16262477380189 -0.24236543429365)
(0.138805087498353 0.138408807806539 0.442235532953331)
(0.142175150968818 -0.575954973346132 0.118218402567331)
(0.0953402866867066 -0.00231907244828082 0.253732814385554)
(-0.108388554563521 -0.236300687691843 -0.0712028035991848)
(0.243650626220052 -0.364895569764987 0.0413607741096926)
(-0 0 -0.175475826841385)
(-0.0953736335769469 -0.16244168885319 -0.278148376991837)
(-0 -0 0.15928643980822)
(0 -0 0.0553416158321042)
(0.162452126837902 -0.130387751074031 -0)
(-0.0273479134750433 0.115731268625629 0.271905279797583)
(0.0869811020806614 -0.0172462210339845 0.301777086143871)
(-0 -0 0.297979585678492)
(0.092666111463036 -0.0223100114403373 -0.0944406647796392)
(0 0 -0.0183508917791096)
(0.098414190579018 -0.0796751867719537 0.0665778443403822)
(-0.145933285219876 0.261207412598297 -0.365664781333232)
(-0.141883523601765 -0.292161285729542 0.113761569770137)
(0.00547016770537558 -0.284319460589304 -0.094435324309061)
(0.00304486048054172 -0.184046808395485 0)
(-0.210615721946737 -0.0818437106734142 0.0693630898993309)
(-0.228691960384695 -0.25666375014271 0.314501121977705)
(-0 0 0.160727277461436)
(-0.108554766080429 0.0526526902565197 0.00204220428950103)
(-0.170659100744159 0.21447086996675 0.16282245830173)
(-0 0 0.148025203452739)
(-0.0891505853051957 -0.110647060259455 -0)
(-0 0 -0.0913878445401823)
(0.0317465353349532 0.37818083622627 0.188062534058982)
(-0.145163117623006 -0.102398295242777 0.336026016764566)
(0.0223417005574749 -0.1267442024371 0.154164481217359)
(-0 0 0)
(-0.0933035796201215 0.311074482994592 -0)
(0.120256060190129 -0.00187775890760943 -0.0887033702289304)
(0.0642027239790793 -0.200804889760369 -0.0501439373378656)
(-0.0681249396933366 -0.230098187161335 0.229569602215502)
(-0.0839487694239479 0.0300017105314483 -0.177939103879188)
(0 -0 0.039240085031677)
(-0.243082705088101 -0.112429149471158 0.360049468289005)
(-0.0925827186300668 0.0169758406190467 0.1395695144221)
(0.0644258633171931 0.0956135299328449 -0.284505431426759)
(0.0910694005369578 0.0912381746001604 0.252286793337024)
(-0.0741967726169151 0.303417528966024 0)
(0 0 0)
(-0 0 -0.154769328174909)
(0.142107595370258 0.167546461281757 0.0949636658815961)
(0.0139939989498066 0.307897094416637 0.253424808437296)
(0.0686007425993682 0.290058085706252 0.157274095470317)
(-0.0607649156035039 -0.140200045316819 -0.275467992978035)
(-0 -0 0)
(0.0942594587256023 0.0980121427420098 -0.090848287581678)
(0.0870938504181636 0.0301630758981436 -0.149713312686895)
(-0.0220901043563925 -0.118525415502795 -0)
(-0 -0 0.287748647912607)
(-0.152228452534836 -0.427899057779845 0.171128449354815)
(-0 0 -0.0745100329369178)
(-0.0184696821423411 0.128986431679405 -0.175878937242899)
(0 0 0.170890869848909)
(-0.0557748871490842 0.139008362487741 -0.441349854882245)
(-0.180778211910801 -0.22456264802829 -0.253241720745284)
(-0.149124003031149 0.0813190075375919 0.322067900316617)
(-0.131054457351768 -0.177622939883971 0.151770008827244)
(0 -0 -0.025517103341183)
(0.0737781905124182 0.0616877698348985 -0.442250926211239)
(0.116546442439326 -0.00227387185598511 0)
(0 -0 0.198679193300167)
(0.309237784408429 -0.086252780822203 -0)
(0.0242059132959917 0.174964075638102 -0.158865305499786)
(-0.2583578578849 0.107511280737544 0.075724503917233)
(0 0 -0.160323967933247)
(-0.196193233060329 -0.426923322926192 0.146624072657983)
(0.132768563968629 -0.0783873302612787 0)
(-0.131646725613649 0.513489758305164 -0)
(-0.0905098861310175 0.0333607623429881 -0)
(0.113864789684505 -0.0301317173317138 0)
(-0 0 0.125166409025193)
(-0.172970644301328 -0.0349391235446014 0)
(-0 0 -0)
(-0.131993162382125 0.156103085828435 -0.0210313562639142)
(-0.0259730419221229 -0.117156490291042 -0)
(-0.0142403609553315 -0.224825721717363 -0.230350251520411)
(0.100182061934941 0.174848065924466 0)
(-0.0734441532191177 0.083092278733114 -0.171737660968477)
(-0.150080403393926 -0.199836958790211 -0.0287963644789751)
(0 -0 0.0953677460346677)
(0.0144317622017292 0.351060092461157 0.173559942151131)
(-0 0 0.326706483396867)
(0.056897271102528 0.229093375503737 0.161303152564698)
(-0 0 -0.171269052797135)
(0.12184017793555 -0.0874637980842551 -0)
(0.221722315836012 -0.00175146842637469 -0.251729522138761)
(0.0864975301604741 -0.0518557820613141 0)
(0 -0 -0)
(-0.139087273489901 0.0519660573780301 -0)
(-0.0538157096036228 0.275160553283482 0)
(-0.0243055669870347 -0.197620851855336 -0)
(-0.103409203401048 -0.281421245438413 0)
(-0.138951330431267 0.0407790490489551 -0.12163509908955)
(0.174871608638821 0.220482564589715 -0.102714603494093)
(0 0 -0.113314229148729)
(-0 0 -0.172715009507443)
(-0.0286523789864298 -0.116026853658217 0)
(-0.146228776412506 -0.0631779007304892 -0.0199639160357769)
(-0 0 -0.204682030903175)
(-0.00635948448244278 -0.11877928293515 0)
(-0 -0 -0.040530298569595)
(-0.0695253866386785 -0.193015593979174 0.148924830985332)
(0 0 0)
(-0.0924197464033111 0.24888101359888 0.333683621879935)
(-0.0624269618140508 -0.137048339791513 0.162968209255428)
(-0 0 -0.0532079628215772)
(0.00149649333348624 -0.129261886960269 -0.197050032251907)
(-0.0680276616947981 0.272061619864882 0.200977221321408)
(0.280432617689636 -0.0327780874955045 -0)
(0.116073655245161 -0.0370814333167811 0)
(0.230648002564988 0.0115045832053899 0.0979334759085222)
(-0 -0 0.0276357175558501)
(-0.114299503377461 0.00230754199185338 -0.14389870311959)
(0 -0 0.0950422200941429)
(0 0 -0.123143848512814)
(-0.0783965176394705 -0.0733211556770826 0.438680544878694)
(0.0798379250417325 0.0582828456572493 -0.108875957618251)
(0.068022817155363 -0.131952717516053 -0.140335046965952)
(-0.217358972220096 0.137098577951521 -0)
(-0 -0 -0.349972820762192)
(0.0803422473702648 0.239978899817851 0.0776943393896617)
(-0.0637012930312291 -0.09612678660943 -0)
(0.146544988038883 0.0337789969530501 0.0314782273379297)
(0 -0 0)
(0.092545320778564 -0.0266740745393364 0.230696011054903)
(0.0819607083442885 0.235147773829488 0.120081348985621)
(-0.0418672422868457 0.187761084653883 0.0498863573637607)
(-0.173477475620329 -0.0605941650974122 -0.00576519216722355)
(0 -0 0.300333013801732)
(0.0888175945627017 0.196213023468835 0)
(0.0663895756782068 -0.090467032651925 -0)
(0.0669262126430138 -0.417300416133712 0.0173708083638962)
(-0 -0 -0.26422456473316)
(-0.185326387374237 -0.150537128321075 0.056976729192191)
(0.163471244626316 0.428894001631707 0.434354972598549)
(0.0333263133052484 0.155185175958827 -0)
(0.0355456305533603 0.244185248576754 -0.095206189372609)
(0.0613885558176396 -0.0998518319127989 0)
(0.0320720225527703 0.175633046471123 0.29402197315059)
(0.0210716773249187 0.121627548450657 0)
(-0.0610191534382107 -0.196540168083958 0.0825408008156226)
(-0.081025148113556 0.165714899863879 0.26167201849216)
(-0.140787808096714 -0.0310708492662286 0.0989541982985121)
(0.212760305989547 -0.282536082277988 -0)
(-0.0734806638790437 -0.0845630828235486 -0.103571488649232)
(0.0964488673441788 0.156424515449371 -0.184748371578416)
(0 -0 0.186565758572175)
(0.129548619408565 0.0929613732923238 -0)
(0.0793477743104343 -0.258262124583689 0.0313067124587792)
(0.126213254572756 0.0621083870978501 0.0702009330081077)
(-0.0943652988823354 -0.104264725663355 -0.176061677118737)
(-0 -0 0.0468874300229747)
(0.212459756726872 0.179291789698105 -0.150371180420088)
(0.202048331468153 -0.091212079192841 -0.0399299407354418)
(-0.0711362772492255 -0.0752758660857581 -0.314139308678201)
(0 0 0.485504158763736)
(-0.0143951090556871 0.153627926397399 -0.106683149608381)
(-0.170179437337502 -0.0162256195944181 -0)
(0 -0 -0)
(-0 0 -0.0444857747730687)
(-0.0701119160623239 -0.386961296361775 -0.00661080760557456)
(-0.0623273855975855 0.13008106432131 0)
(-0 0 -0.391711030602934)
(0.161119810452181 0.201241398978573 -0.360336748237713)
(-0 -0 0.181300232866169)
(-0 -0 0.17566813218572)
(0.0637619157763814 0.0806501566965595 0)
(-0 -0 -0)
(-0.00987679411911153 -0.126766137859174 0)
(-0.00629319995405535 -0.121075379070991 0.0717010546608938)
(-0.0235005822801685 0.122811323878664 -0.0967003631416678)
(-0 -0 -0)
(0 0 -0.1378097692662)
(0 0 0.149005638430571)
(0.0144302440467982 0.227887179503747 0.163523538883653)
(0.0192729207989599 -0.162798091009465 -0.144876313263494)
(-0.172445642502519 0.263359383731185 -0.260070960926722)
(-0 0 -0.235020609092959)
(0.0480094001566853 -0.431809510860165 -0.092327784228133)
(-0 0 -0)
(0 -0 -0.0575174617354715)
(0 -0 0.232912236257463)
(-0.0375848503262253 -0.194046577921547 -0.107404807507381)
(-0.0161577146213169 0.163604256943569 0)
(-0 -0 0.197887239067287)
(0.103716383483641 -0.258818099270079 0.174523073006901)
(-0.0351232329667678 0.174971384256089 -0.323249329468517)
(-0 -0 0)
(-0.0251379532806319 -0.212659470881891 0.221515709681197)
(0 -0 -0.0161095617303853)
(0.21637424281993 0.166347099103146 0.179565545736699)
(-0.022616197288933 -0.119659528759656 0)
(0 -0 -0.307162476568681)
(-0.163075306454989 0.30071776533997 -0.1056601161257)
(0.00654349272225742 -0.126705206352848 0.0027494611051442)
(-0.110964995470906 0.146582200848684 0)
(-0 -0 0.0589199175287287)
(-0 0 -0)
(0 -0 -0.081214173655061)
(-0.0793638658051496 -0.0634378446158462 -0.328556553341554)
(-0.134785327635291 0.0176945146412352 -0.0246835407055274)
(-0.0467022276934706 -0.187714247462664 0.146422009068661)
(0.143543539584863 0.319800297987806 0.0101329067978261)
(-0.093508513923325 0.026446419709146 -0.109826479855598)
(-0.0499447599197722 0.386443701855444 0.0758653315369472)
(-0.0899704529102988 0.182459711342291 0.13639845285732)
(0.138288825746389 -0.110856391760812 0.17602229751013)
(-0 0 -0)
(0 -0 -0.272713286586319)
(-0.111262166575492 -0.333698531896793 0.232555599283459)
(-0 -0 -0.0536454799118612)
(0 0 -0.08589994618052)
(-0 0 -0)
(-0 0 0.113022751584104)
(-0.137018602333175 -0.272010675136403 0.162151183686482)
(-0 -0 0.0983158165667933)
(0.203954775354858 -0.130998935805113 -0.0262737526657645)
(-0.03519278659856 0.120552799704052 0.135413168333714)
(-0.0644932714201066 -0.0848900641134449 -0.0237427019765562)
(-0 0 0.0576229665334335)
(0 0 -0.0181208210111742)
(-0.0213225003222917 -0.23355754723666 0.241421348884051)
(-0 0 0.0649682341326379)
(0.220839259926622 -0.253817909044198 -0.291475954435452)
(0.0735770260279381 -0.156536841958718 0.00653991854495818)
(0 0 0.463903143079429)
(0 0 0.205997749673614)
(-0.0693678138847352 0.0856090715386116 -0.261330040137097)
(-0.0469041521101018 0.226720329680243 0.124184256234476)
(-0.135231763348366 0.0192845365765589 0.272995814736367)
(0.0752631426143904 -0.0766762550131743 0.189919084072321)
(0.169800557646124 -0.0293073111682718 0.0636400088989896)
(0 -0 -0)
(-0.16070025453207 -0.30606328032537 0.0806615810320295)
(-0.0307090339426119 0.12348001794325 0.0332638791507019)
(0.0294539469829467 0.198499438511355 -0.149342089039568)
(-0.0112456180033403 -0.127560379881838 -0)
(-0.123956166852258 -0.14380151526362 0)
(-0 0 -0)
(0.0608180968680506 -0.4602046776087 0)
(0 0 0.335154557958308)
(0 -0 0.0558916297875395)
(-0.0419023819600363 0.223412150807597 -0.195887997240375)
(-0.056035249120841 -0.146195819146069 0)
(0.0829697525240043 0.0483356352271863 -0)
(0.0791941904837961 -0.202428484928773 0.0333921196195402)
(-0.108311701274421 0.160305068894353 0)
(0.0484740293023939 -0.217377069309809 0.118724947962142)
(-0.058693992079346 -0.136325860452469 -0.32471425143272)
(-0 -0 0.409839517174938)
(0 -0 0.49584891496827)
(0 -0 0.118452595882377)
(-0 0 -0.033361342601033)
(-0 0 -0.190727511761006)
(0.0110721868798092 0.178008023060842 0)
(-0.0860461894419308 -0.0470967423521603 -0.0217497817206865)
(-0.0160004417023406 0.116868554853505 0.0701659377383113)
(0.0302297984209037 -0.15487003900116 0.137929859896304)
(0.232754405982433 -0.0942780985178923 0)
(-0 -0 0.0150641881252707)
(0 -0 0.0764295773250834)
(0.126700020290092 0.22094095947972 -0)
(0.372572478080938 0.222265037902131 -0.369056215527983)
(-0.0270414385995645 -0.123471616691765 0.216995220522828)
(-0.0791736365099624 -0.127063288165978 -0.152104660433096)
(-0 0 -0.0277464444112987)
(0 0 -0)
(0.192335555591138 0.141201600591532 0.187735160510654)
(-0.0908463442924045 0.17987169051901 0.0777386771227446)
(-0.0839874550390634 -0.0562891053766508 -0)
(-0.23525319746192 0.079032778406603 -0.124999666821249)
(-0.00601874489577656 0.202786006917732 -0)
(0.0164294878624512 -0.127271252239895 0)
(0.138544184785815 -0.301134901337064 -0.160229457853721)
(0.214325979605783 0.0341730676477288 0.171637629249343)
(-0.206088313507926 0.157101272372132 0)
(-0.168670663465379 -0.013599869510714 0.113815236150095)
(-0.0248140632133913 0.11839413534521 -0.146147719673955)
(-0 -0 -0.255560287509313)
(-0 -0 0)
(-0 -0 -0.0494465101281709)
(-0.0340443935352212 0.113886017469511 0)
(-0.199496091172771 0.165344330668383 -0.077371898905048)
(0.120471982098974 0.211456855382726 -0.0368536494640521)
(0.0933896333988577 -0.0214247317486476 -0.463297805838611)
(0.00388566533881554 -0.199308180901623 -0.252514209460245)
(0.0522621306101067 0.165502872658097 -0)
(-0 0 -0.0869784984886634)
(-0.133941996334245 -0.0102339029612834 -0)
(0.0786191517366464 0.0611566008232811 0.00331889217383555)
(0.290850640545734 -0.0211817932630423 -0.208325788693102)
(-0 0 0.299095305647869)
(-0.0175454310531374 -0.272317040931171 0.0780439175755522)
(-0 0 -0)
(-0 -0 -0)
(0.0207581740417964 -0.193667050149697 -0)
(-0 0 -0.264711898609994)
(-0.121166411442599 -0.167983655891411 0.266558123998038)
(-0 0 -0.175624880779551)
(-0.209829933227632 0.0878621356926931 0.354341374156004)
(0.123921785075246 -0.163507197340668 0.425360205623139)
(-0.0813263815653107 -0.107589799430594 0.211264039787703)
(0.142657780213865 0.0476350731659296 0.145618541521563)
(-0.0804255589230044 -0.0632053754174089 -0)
(0 -0 0)
(0.148092942933075 -0.331293662675447 0.128055316705245)
(0 -0 0.29859902050836)
(0.155045360619766 -0.196401848694401 -0.132380593557657)
(-0.102641105766326 -0.116757805225368 -0.296967568592502)
(0 -0 0.502910460031863)
(0 -0 -0.0701343501113507)
(-0.112337965155955 -0.175826732698006 -0.32954542508492)
(-0.126502754354127 -0.190848191482215 -0.151219249413451)
(0.152402112980298 -0.0402028898227505 0)
(0.158373224042301 -0.219018596056059 0.298195110688425)
(0.0210762979324143 -0.125494230694519 -0.0237598065992357)
(0.0732528119458653 0.0695323603778575 -0)
(-0.0812220469950848 -0.164680256892014 -0)
(-0 -0 -0)
(0.125599574235911 -0.141874597099503 0.196210748640574)
(0 0 0)
(-0.145619014570697 -0.0680626268116446 0)
(-0 -0 -0.131173817205377)
(0.113971476198634 0.00426359297121872 0.0330653133855912)
(-0.121521519116827 -0.0806994954460796 0.420881965485242)
(-0 0 0.158340262199518)
(-0 -0 0.218235893973242)
(-0.15260744009355 0.136644105824977 -0.504263199286788)
(0.211100381680419 -0.0712678677238881 -0)
(-0.0567300036560909 0.162300814521459 0)
(-0.100379464435543 -0.181380425125492 -0.300189369057888)
(-0.244382483732417 -0.0183762616903996 0.154277593716127)
(0 0 0.385563156394588)
(0 -0 -0.151289792120654)
(-0 0 0.225559098062485)
(-0.168656663698626 0.19222330256619 -0)
(0.206240546276866 0.337964279519266 0.265704222312956)
(-0 -0 0.104953771625304)
(0 0 -0)
(0.138224069005271 0.0476590617652348 -0.110844667624652)
(0 -0 -0.0290747372150928)
(-0.0274064319393125 0.271220461052963 0.23730507800942)
(0.101853604171137 -0.161528048067524 -0)
(0.0744822394071851 0.173616884280322 0.292449727806341)
(0.120904184724039 0.00458092397710666 -0.00803586923994483)
(-0 0 -0.258111715605591)
(0.0742899015511977 -0.148267788662577 0)
(-0 0 -0.167113445903699)
(0 -0 0.217224618863272)
(-0.247889058794816 -0.162916659012216 -0.232025017446965)
(0.142415695543991 0.043512621889544 0)
(0 -0 -0)
(-0 0 0.0022533539898936)
(0 0 -0.213721262825489)
(-0 0 0.370232683996154)
(-0.118547790957643 0.257393130952507 -0.359187055236408)
(0.0469890713918736 -0.144442636074229 -0.137798787112839)
(-0.0728199586928737 0.199331297207079 0.189825000480317)
(-0.190965685899845 -0.239044220831763 0)
(-0.0780916101971531 -0.0522206070948857 0)
(0.194200431378876 0.0659884404673783 -0.23100933412995)
(0.0702224540741795 -0.134463124956854 -0.0678735214131212)
(0.233172036751668 -0.0161158278768462 0.154551812552734)
(0 -0 0.0640151323410872)
(-0.174502972277193 -0.228244623923167 -0)
(0.0914632279055267 -0.0367192128531108 -0)
(0.105265438391139 -0.0714065210669578 0.173843995692258)
(-0.0270283615235014 -0.182506699357632 -0.352943977281874)
(0 0 -0.110597585046233)
(0.189141986376011 0.270494555681135 0)
(-0.0674994045384347 -0.224168296151988 0.0737412239448384)
(-0.0234881899898443 -0.198529118174977 0)
(-0 -0 -0.183331119161889)
(0.00409463873530232 0.15813428659943 0.258679679665551)
(-0.0745728796501622 -0.168259904899806 0.346844608941075)
(0.066127384604049 -0.217535485036543 0.425119844466133)
(-0 -0 -0.0445205567748956)
(-0.172291611922854 0.162240571762726 -0.430066873661519)
(0.204530192728335 -0.0863879942821468 0.319296751890896)
(0.227658889184502 -0.00919732109983487 0)
(-0 -0 -0.0162247043475682)
(0.057722962387785 -0.343116140877818 -0.3062124076576)
(-0.11401138609904 -0.0360917935998312 0.199398521239191)
(-0.119285787220882 0.15151248664425 -0.0932093197947065)
(-0.0864339375195947 0.0355953340288542 -0.104364444345849)
(0.138605148777442 0.201756312256015 -0.00573970472039847)
(-0.0433301675623899 -0.217896820203095 0.10565000771405)
(-0 0 0.393818818215987)
(-0 0 -0.179535663743195)
(-0.117339625286787 0.243013265905482 0.419095395658053)
(0 0 -0)
(0.0959139241869293 -0.153049686865124 -0.0464444380401908)
(-0.141805421160759 -0.20817128292304 -0.176237946269469)
(0 -0 0.106961442729697)
(-0.104903573055285 0.199181583086083 -0.288784641530645)
(-0.0520434688392956 -0.224558622639737 -0.174367726114615)
(-0.118427201106619 0.0249893722736685 -0)
(0.125728223331443 -0.311744012660292 0.111264761656393)
(0 -0 0.155196358768079)
(-0.105727207241969 0.309826835291369 -0.34235192516942)
(0.0157955631017406 0.342296180178253 0)
(-0.0634398604703175 0.226892946359169 0.157257677128495)
(-0 -0 0.0264409492795579)
(-0.0706372369169347 0.0779204686596068 0.0560498127812948)
(-0 0 0.228816648796984)
(0.123077430616715 0.0852904626059414 0.0483445426438497)
(0.0892183035799695 -0.00393647780508038 0)
(0.12457809021168 -0.219238225708215 -0.137971280359114)
(0.00284505068608112 0.119781832741476 -0.0516853160552021)
(0.139736008188703 0.0604329832947548 -0.159407313699865)
(-0 0 -0.127240592238869)
(-0 -0 -0.0440208847819183)
(0 0 0)
(-0.161142115576662 -0.167740092997623 -0)
(-0.144532979560157 -0.133147129650959 0)
(0.242428713282492 -0.163907989379929 -0.13013464262305)
(0.115350790662476 0.157017122885213 0)
(0 -0 -0)
(-0.0380600033231656 0.33397574320242 0.12757409759308)
(0 0 0.0696253142750232)
(0 -0 -0)
(0.0627546920875873 0.0877988885464152 0.135570261291814)
(-0.177381372174688 -0.117531855203461 0)
(0 0 0.198197195093627)
(0.067704277722158 -0.18707952840974 0)
(0.0634120690980739 0.289190589027519 0.00857529186486826)
(-0.0239231146906182 -0.195997348536281 0.158579767936941)
(0.195016999213534 -0.000964871229745503 0)
(0.086266385455662 -0.115677792778152 0)
(-0 -0 -0)
(-0 0 0.215800154354676)
(-0.0506465632391935 -0.148634736027829 -0.0898743817490875)
(0.0987925543818415 0.124118857857047 0.410584893074241)
(0.143729740656602 -0.0754541837659681 0)
(-0 -0 -0.260283397471503)
(-0.100752221292817 0.366878200471969 -0.0474035752413864)
(-0.0515662985019042 0.0954949179251612 -0.192100455539086)
(0.181765730067064 0.00496603209408019 0.176470031235207)
(0 -0 -0.0554623561053417)
(-0.0919781473053228 -0.0145850219378519 0.0809536041726722)
(-0.186194931302878 -0.0106563534727335 0)
(0.0992011254888634 -0.0874775083178755 -0)
(0.0465058717436 0.105098516623556 0)
(-0 -0 -0.117901423699442)
(0.12517707234314 -0.198995222872771 0)
(0.00120486183744254 -0.128370685066988 -0.105162342282995)
(0.178187582498004 0.00313950875618129 -0.149145380588432)
(0 0 0)
(0.0743732864595761 -0.311323712570681 -0.13882270623046)
(0.198355099631215 0.0337167499691726 -0.139321636920812)
(0.0957503364159037 -0.29864313585839 -0.0984452617360373)
(0 0 0.395405373767227)
(-0.109634513874203 0.231056893438265 0.0339335034652321)
(-0 -0 0.220996097829813)
(-0.0388940608547233 0.108584111365247 0.0104171142890688)
(-0 -0 0.293061171893198)
(0.0878952515907783 -0.0321178364593222 -0.296321572253781)
(-0.0652404334362944 -0.174327130951194 -0.00550551967174611)
(0 0 -0.0246317269535888)
(-0.0133392639453519 -0.185447211116883 0.3764561936095)
(0.0273672419083001 -0.11665816310318 0)
(0 -0 -0.332887333353855)
(-0 0 -0.273402442463925)
(0 -0 0.190500678078506)
(-0.0927458442803883 0.0953299611722482 0.152879373240847)
(0 -0 0.119738080337452)
(-0.0744342318404627 0.0705219159176652 0)
(0.0893425527031019 -0.203307566107073 0.125111549216433)
(-0.0660939916366382 0.0780361571422096 -0)
(0 -0 0.417262319024783)
(-0.0881693677172139 -0.0124481689239069 0.0303690551655017)
(-0.00793497793673517 -0.129894503100425 -0.264747991723443)
(-0.149382003779504 -0.106681367526662 -0.32220777571224)
(-0.0413500090424371 -0.147248630835749 -0)
(-0.0710394312981254 0.128587994476321 -0)
(-0.0806669120849382 -0.0706418784839995 -0.121972973810927)
(0 0 0.0325124504496455)
(0.0505827741158901 -0.147138096593945 -0)
(-0.192581086557871 0.251888644351576 0.106234606298214)
(-0.0583923380046421 0.132538509350325 0.0366800982142804)
(-0.14148883507055 -0.240240702470743 0)
(-0.156293751413809 -0.100910390486982 -0)
(0.0873054038026529 0.039906028656168 -0.0701055783588452)
(-0.0811123170395298 0.159672185973497 -0.0753731191561601)
(-0.282947184625187 0.0244001763311048 -0.0757648620245823)
(0.103156503932764 -0.144348830353235 0.150075585607537)
(0 0 0.193911109783727)
(-0 0 0.0467112950905743)
(-0 -0 -0)
(-0.181121426894666 -0.0957924835079244 -0)
(0 -0 -0.0888453594205113)
(0.053176910173619 -0.142598871556685 0.382847838072765)
(-0.033241110293369 0.114673061281935 -0.175156940267725)
(-0 -0 0)
(0.177060001191109 -0.0863487901630451 -0.0917562108760405)
(-0.0800175004646556 0.044304197949997 -0.00428733353546818)
(0.1048320041572 0.068427235843006 -0)
(-0.138166104249712 0.0515731505127123 -0.462932107146722)
(-0 -0 -0.188405092181767)
(-0.0569433330017364 -0.345610713836088 -0.505873065042647)
(-0 0 -0)
(0.0146373920504254 0.417634888230287 0.227380384951125)
(-0.0800256947964018 0.0476675940625924 -0.221602132253546)
(-0.139618017305367 -0.204174106769941 0.185021879959309)
(0.0366964993694181 0.121049371851813 0)
(0 0 -0)
(-0.0496845670517864 -0.18966783621514 -0.159832674337941)
(0.170388595944589 -0.218603528571566 0.139217018700928)
(0.103819961055671 -0.0757297049785079 -0.130868902758639)
(0 0 -0.469820943430939)
(-0.0676933466603956 0.265997931203743 0.237960222474195)
(0.122616263467101 0.18354167737569 0.0311172878988535)
(-0.0439266962789018 0.104182763341003 -0.22863669989946)
(0.293925678377304 0.0584848344654993 -0.228002022480394)
(-0 0 0.0415124817236293)
(-0.0423343399735503 0.275191639668838 0)
(-0 0 0.144831821612118)
(0.0898653172340936 -0.0362680467535804 -0)
(0 0 0.0195737790503562)
(-0 -0 -0)
(0.0209745980203332 -0.200501053136105 0.289557100688637)
(0.106949002461102 -0.167350825750313 -0.167928290597968)
(0.075174583055604 -0.062299864176577 -0.233737103820117)
(-0 0 0.133405397649851)
(0.251781979323028 0.105770288325146 -0)
(0.292731494801859 0.0857739009350754 0)
(0.0300082608430876 0.286224534861027 0)
(0.143617884150705 -0.18251982130322 0.212849949671429)
(-0 -0 0.117755004166959)
(-0.0793184584609742 0.0698134586670527 -0.244708694185245)
(0.192861385779232 0.0052379247745276 0.0150256916689044)
(0.019936732420225 0.128398616291646 -0)
(0.135075573836923 0.0143822387976488 -0.379570169165998)
(0.195996838402572 0.179792510929999 -0.042671238143537)
(-0.13531177387567 0.0827098349612536 0.160431798286425)
(0.130131476936409 -0.0844801965768256 0.0015814151069067)
(0.0386768019019799 -0.239672852258267 -0.00650403469281311)
(-0.123302513028101 0.149219412707367 -0.139230705930149)
(0.15284420790672 -0.0473239216163441 -0)
(-0 0 -0.256863397699685)
(-0.277104692372267 -0.0130299860891691 0.245469494904143)
(-0.0327316564947552 0.11380986852727 -0.0644957823072191)
(-0.151787378781902 -0.00439223153276442 -0.0426883247903273)
(-0.158744221567922 0.245305683262253 0.25545331142798)
(0.0444986002673623 -0.112631475126146 0.209192681124191)
(-0 -0 -0)
(0.251094311132192 0.04315446453691 -0.0307240794175284)
(0.0792566507302921 0.44170417664314 0.432583359397192)
(-0.0744618616310519 -0.0702875256533354 0.146755895853289)
(0.159965914195949 0.180537400220805 -0.285140072284044)
(-0 0 0.279931910498502)
(-0.0789956613090647 -0.0702485475001308 -0)
(0.0333352740435182 -0.112139580029717 -0.0547152989983581)
(-0.0606591647988769 -0.0934853080286153 -0)
(-0 0 0)
(0 0 0.216543541254223)
(-0 0 0.0419584464687414)
(0.0910029623122964 0.157417424680235 -0.0962233096166056)
(-0 -0 0.0297903095273282)
(0.235075484239249 -0.258015617489778 0)
(0.00690280313729949 0.12342468518193 -0.313840611508481)
(0 -0 0.309850227298202)
(-0.132325309348346 -0.261094525189649 0)
(0.24478827402952 -0.0432015550886741 0)
(-0.113687470912905 -0.00485998961137553 0)
(-0 0 0.200434027137498)
(0 -0 0.0659921268558243)
(-0.116163394186968 -0.0460413560929893 0.14723278791533)
(-0.279770473466159 -0.129777709076856 0.166799246257897)
(0.102793641544662 -0.0756655895281619 -0)
(-0 -0 0.11017177980947)
(0 0 0)
(-0 0 0)
(0 -0 -0.190803030941279)
(-0.018865947011553 -0.439170115736259 0.182473953628805)
(-0 -0 0.00489163546978187)
(0.0110080846071606 0.125101918581353 0.0458055217711625)
(0.160719250167628 -0.0468627486676013 -0.0821416255406412)
(-0.0907554565191232 0.00732388546553341 -0.125358180066571)
(0.0975391444953735 -0.0807586661667158 0.128521536321671)
(0 -0 -0)
(0.130437798560205 0.0970432128590091 -0.0666543619435475)
(0 0 0)
(-0.0321360500598994 0.255095606216546 -0.0889632004686093)
(0.00979191782813484 -0.154401675154239 0.259739580293417)
(0.19269804218957 -0.113781576273247 -0.276099331918301)
(0 -0 -0)
(-0.0566921141870876 -0.163701783867186 -0.0419005246179649)
(-0 -0 0.218023062983579)
(-0 0 -0.123282243390927)
(0 -0 -0)
(-0.161194463872103 -0.0420684818429651 -0.112948955859101)
(-0.155525381854989 -0.128951450535398 -0)
(-0.0428485111915732 0.231224785162178 -0.1982451119348)
(-0 0 0.0709614379442683)
(0 0 0.29790214460518)
(-0.0534317716991062 -0.169128443345528 0.0761704698248509)
(-0.204303070760218 -0.249342371633785 -0)
(-0.0626819919551842 0.233813092412807 0.0386775304593721)
(-0 0 -0)
(-0 -0 -0.137319356404605)
(0.219168364611294 0.0358640072303167 0.224905478308948)
(-0 0 -0.0783654936598795)
(-0.0863295673887607 -0.0413802259816586 0.45426065217178)
(-0 -0 0.0683885290964104)
(0.104972116682169 -0.193246018158054 -0.245393585885734)
(-0.125737015805055 -0.243755983789687 0.208528407480408)
(0 0 -0)
(0.0849273749834332 -0.0290931720293662 -0.0736891858374611)
(0.0917120983703813 0.0204923266005923 0.0228852104891699)
(-0.10005095075981 -0.0796428739973533 0.144051398278993)
(0 -0 0.0258293755718153)
(0.0902225962196446 0.186950777722564 0.186103899858674)
(-0.0178787046926298 -0.176898432963196 0.00760078694675046)
(0.0282001579987765 -0.123372029958358 -0)
(-0.00997145347959042 0.195007034387572 0.158966415229034)
(-0.13883352064686 0.0511925141398224 0)
(0.119677327714838 -0.0129528763292072 -0.196040546443629)
(0 -0 0)
(0.21611256165248 -0.0149393123323522 0)
(0.207758752383497 -0.115647615204084 0)
(0 -0 -0.0932221627065057)
(-0.0116540569668745 -0.124368230332155 0.331542112532498)
(-0.175055914653214 0.238602145139123 -0)
(-0 0 0.0824398048723202)
(-0.0551177402518332 -0.169363488031328 -0.110074299451068)
(-0 0 0)
(-0 0 0.0821790260163704)