/*--------------------------------*- C++ -*----------------------------------*\
| =========                 |                                                 |
| \\      /  F ield         | OpenFOAM: The Open Source CFD Toolbox           |
|  \\    /   O peration     | Version:  2.4.0-MNF                             |
|   \\  /    A nd           | Web:      www.OpenFOAM.org                      |
|    \\/     M anipulation  |                                                 |
\*---------------------------------------------------------------------------*/
FoamFile
{
    version     2.0;
    format      ascii;
    class       Cloud<polyMolecule>;
    location    "0/lagrangian/polyMoleculeCloud";
    object      positions;
}
// * * * * * * * * * * * * * * * * * * * * * * * * * * * * * * * * * * * * * //

4298
(
(0.9 0.9 2) 0
(1.45 1.45 2.55) 0
(1.45 1.45 3.65) 25
(1.45 1.45 5.85) 25
(0.9 0.9 6.4) 50
(1.45 1.45 6.95) 50
(0.9 0.9 7.5) 50
(1.45 1.45 8.05) 50
(0.9 0.9 9.7) 75
(1.45 1.45 10.25) 75
(0.9 0.9 10.8) 75
(1.45 1.45 11.35) 75
(1.45 1.45 12.45) 75
(1.45 1.45 13.55) 100
(0.9 0.9 14.1) 100
(1.45 1.45 14.65) 100
(0.9 0.9 15.2) 100
(0.9 2 0.9) 0
(1.45 2.55 1.45) 0
(0.9 2 2) 0
(1.45 2.55 2.55) 0
(0.9 2 4.2) 25
(1.45 2.55 4.75) 25
(0.9 2 5.3) 25
(1.45 2.55 5.85) 25
(0.9 2 6.4) 50
(1.45 2.55 6.95) 50
(0.9 2 7.5) 50
(1.45 2.55 8.05) 50
(0.9 2 8.6) 50
(1.45 2.55 9.15) 50
(0.9 2 9.7) 75
(1.45 2.55 10.25) 75
(0.9 2 10.8) 75
(1.45 2.55 11.35) 75
(0.9 2 11.9) 75
(1.45 2.55 12.45) 75
(1.45 2.55 13.55) 100
(1.45 2.55 14.65) 100
(0.9 2 15.2) 100
(1.45 2.55 15.75) 100
(0.9 3.1 0.9) 0
(1.45 3.65 1.45) 5
(1.45 3.65 2.55) 5
(0.9 3.1 3.1) 0
(1.45 3.65 3.65) 30
(0.9 3.1 4.2) 25
(1.45 3.65 4.75) 30
(0.9 3.1 5.3) 25
(1.45 3.65 5.85) 30
(1.45 3.65 6.95) 55
(1.45 3.65 8.05) 55
(0.9 3.1 8.6) 50
(1.45 3.65 9.15) 55
(1.45 3.65 10.25) 80
(0.9 3.1 10.8) 75
(1.45 3.65 11.35) 80
(0.9 3.1 11.9) 75
(0.9 3.1 13) 100
(1.45 3.65 13.55) 105
(0.9 3.1 14.1) 100
(1.45 3.65 14.65) 105
(0.9 3.1 15.2) 100
(1.45 3.65 15.75) 105
(0.9 4.2 0.9) 5
(1.45 4.75 1.45) 5
(0.9 4.2 2) 5
(0.9 4.2 3.1) 5
(1.45 4.75 3.65) 30
(0.9 4.2 4.2) 30
(0.9 4.2 5.3) 30
(1.45 4.75 5.85) 30
(0.9 4.2 6.4) 55
(1.45 4.75 6.95) 55
(0.9 4.2 7.5) 55
(1.45 4.75 8.05) 55
(0.9 4.2 8.6) 55
(0.9 4.2 9.7) 80
(1.45 4.75 10.25) 80
(0.9 4.2 10.8) 80
(0.9 4.2 11.9) 80
(1.45 4.75 12.45) 80
(0.9 4.2 13) 105
(1.45 4.75 13.55) 105
(0.9 4.2 14.1) 105
(1.45 4.75 15.75) 105
(1.45 5.85 1.45) 5
(0.9 5.3 2) 5
(1.45 5.85 3.65) 30
(0.9 5.3 4.2) 30
(1.45 5.85 4.75) 30
(1.45 5.85 5.85) 30
(0.9 5.3 6.4) 55
(1.45 5.85 6.95) 55
(0.9 5.3 7.5) 55
(1.45 5.85 8.05) 55
(0.9 5.3 8.6) 55
(1.45 5.85 9.15) 55
(1.45 5.85 10.25) 80
(0.9 5.3 10.8) 80
(1.45 5.85 11.35) 80
(0.9 5.3 11.9) 80
(1.45 5.85 12.45) 80
(0.9 5.3 13) 105
(1.45 5.85 13.55) 105
(1.45 5.85 14.65) 105
(0.9 5.3 15.2) 105
(1.45 5.85 15.75) 105
(0.9 6.4 0.9) 10
(1.45 6.95 1.45) 10
(0.9 6.4 2) 10
(1.45 6.95 2.55) 10
(0.9 6.4 3.1) 10
(1.45 6.95 3.65) 35
(0.9 6.4 4.2) 35
(1.45 6.95 4.75) 35
(0.9 6.4 5.3) 35
(1.45 6.95 5.85) 35
(0.9 6.4 6.4) 55
(1.45 6.95 6.95) 60
(0.9 6.4 7.5) 60
(1.45 6.95 8.05) 60
(0.9 6.4 9.7) 80
(1.45 6.95 10.25) 85
(1.45 6.95 11.35) 85
(0.9 6.4 11.9) 80
(1.45 6.95 12.45) 85
(0.9 6.4 13) 110
(1.45 6.95 13.55) 110
(1.45 6.95 14.65) 110
(0.9 6.4 15.2) 110
(1.45 6.95 15.75) 110
(0.9 7.5 2) 10
(0.9 7.5 3.1) 10
(1.45 8.05 3.65) 35
(0.9 7.5 4.2) 35
(1.45 8.05 4.75) 35
(0.9 7.5 5.3) 35
(0.9 7.5 6.4) 60
(1.45 8.05 6.95) 60
(0.9 7.5 7.5) 60
(1.45 8.05 9.15) 60
(0.9 7.5 9.7) 85
(0.9 7.5 10.8) 85
(0.9 7.5 11.9) 85
(1.45 8.05 12.45) 85
(0.9 7.5 13) 110
(1.45 8.05 14.65) 110
(0.9 7.5 15.2) 110
(1.45 8.05 15.75) 110
(0.9 8.6 0.9) 10
(1.45 9.15 1.45) 10
(0.9 8.6 2) 10
(0.9 8.6 3.1) 10
(0.9 8.6 4.2) 35
(1.45 9.15 4.75) 35
(0.9 8.6 5.3) 35
(0.9 8.6 6.4) 60
(1.45 9.15 6.95) 60
(0.9 8.6 7.5) 60
(1.45 9.15 8.05) 60
(1.45 9.15 9.15) 60
(0.9 8.6 9.7) 85
(1.45 9.15 10.25) 85
(0.9 8.6 10.8) 85
(1.45 9.15 11.35) 85
(0.9 8.6 11.9) 85
(0.9 8.6 13) 110
(1.45 9.15 13.55) 110
(0.9 8.6 14.1) 110
(1.45 9.15 14.65) 110
(0.9 8.6 15.2) 110
(1.45 9.15 15.75) 110
(0.9 9.7 0.9) 15
(0.9 9.7 2) 15
(1.45 10.25 2.55) 15
(0.9 9.7 3.1) 15
(1.45 10.25 3.65) 40
(0.9 9.7 4.2) 40
(1.45 10.25 4.75) 40
(0.9 9.7 5.3) 40
(1.45 10.25 5.85) 40
(1.45 10.25 6.95) 65
(0.9 9.7 7.5) 65
(1.45 10.25 8.05) 65
(0.9 9.7 8.6) 65
(1.45 10.25 9.15) 65
(0.9 9.7 9.7) 90
(1.45 10.25 10.25) 90
(1.45 10.25 11.35) 90
(0.9 9.7 13) 115
(1.45 10.25 13.55) 115
(0.9 9.7 14.1) 115
(1.45 10.25 14.65) 115
(0.9 9.7 15.2) 115
(1.45 11.35 1.45) 15
(0.9 10.8 2) 15
(1.45 11.35 2.55) 15
(0.9 10.8 3.1) 15
(1.45 11.35 3.65) 40
(0.9 10.8 4.2) 40
(1.45 11.35 4.75) 40
(1.45 11.35 6.95) 65
(0.9 10.8 7.5) 65
(1.45 11.35 8.05) 65
(0.9 10.8 8.6) 65
(1.45 11.35 9.15) 65
(0.9 10.8 9.7) 90
(1.45 11.35 10.25) 90
(0.9 10.8 10.8) 90
(1.45 11.35 11.35) 90
(0.9 10.8 11.9) 90
(1.45 11.35 12.45) 90
(0.9 10.8 13) 115
(0.9 10.8 14.1) 115
(1.45 11.35 14.65) 115
(0.9 10.8 15.2) 115
(1.45 11.35 15.75) 115
(0.9 11.9 0.9) 15
(1.45 12.45 1.45) 15
(0.9 11.9 2) 15
(1.45 12.45 2.55) 15
(0.9 11.9 3.1) 15
(1.45 12.45 3.65) 40
(0.9 11.9 4.2) 40
(1.45 12.45 4.75) 40
(0.9 11.9 5.3) 40
(0.9 11.9 6.4) 40
(0.9 11.9 7.5) 65
(1.45 12.45 8.05) 65
(0.9 11.9 8.6) 65
(0.9 11.9 9.7) 90
(1.45 12.45 10.25) 90
(0.9 11.9 10.8) 90
(1.45 12.45 11.35) 90
(0.9 11.9 11.9) 90
(1.45 12.45 12.45) 90
(0.9 11.9 13) 115
(0.9 11.9 14.1) 115
(0.9 11.9 15.2) 115
(1.45 12.45 15.75) 115
(0.9 13 0.9) 20
(1.45 13.55 1.45) 20
(0.9 13 2) 20
(1.45 13.55 2.55) 20
(0.9 13 3.1) 20
(1.45 13.55 3.65) 45
(0.9 13 5.3) 45
(1.45 13.55 5.85) 45
(1.45 13.55 6.95) 70
(0.9 13 7.5) 70
(1.45 13.55 8.05) 70
(1.45 13.55 9.15) 70
(0.9 13 9.7) 95
(1.45 13.55 10.25) 95
(1.45 13.55 11.35) 95
(0.9 13 11.9) 95
(0.9 13 13) 120
(1.45 13.55 13.55) 120
(0.9 13 14.1) 120
(0.9 13 15.2) 120
(1.45 13.55 15.75) 120
(0.9 14.1 0.9) 20
(1.45 14.65 1.45) 20
(0.9 14.1 2) 20
(0.9 14.1 3.1) 20
(0.9 14.1 4.2) 45
(1.45 14.65 5.85) 45
(0.9 14.1 6.4) 70
(0.9 14.1 7.5) 70
(1.45 14.65 8.05) 70
(0.9 14.1 8.6) 70
(1.45 14.65 9.15) 70
(1.45 14.65 10.25) 95
(0.9 14.1 10.8) 95
(1.45 14.65 11.35) 95
(1.45 14.65 12.45) 95
(1.45 14.65 13.55) 120
(0.9 14.1 14.1) 120
(1.45 14.65 14.65) 120
(0.9 14.1 15.2) 120
(1.45 14.65 15.75) 120
(0.9 15.2 0.9) 20
(0.9 15.2 2) 20
(1.45 15.75 2.55) 20
(0.9 15.2 3.1) 20
(1.45 15.75 3.65) 45
(0.9 15.2 4.2) 45
(0.9 15.2 6.4) 45
(1.45 15.75 6.95) 70
(0.9 15.2 7.5) 70
(1.45 15.75 9.15) 70
(0.9 15.2 9.7) 95
(1.45 15.75 10.25) 95
(0.9 15.2 10.8) 95
(1.45 15.75 11.35) 95
(0.9 15.2 11.9) 95
(0.9 15.2 13) 120
(1.45 15.75 13.55) 120
(0.9 15.2 14.1) 120
(1.45 15.75 14.65) 120
(0.9 15.2 15.2) 120
(1.45 15.75 15.75) 120
(2 0.9 0.9) 0
(2.55 1.45 1.45) 0
(2 0.9 2) 0
(2.55 1.45 2.55) 0
(2.55 1.45 3.65) 25
(2.55 1.45 4.75) 25
(2 0.9 5.3) 25
(2.55 1.45 5.85) 25
(2 0.9 6.4) 50
(2.55 1.45 6.95) 50
(2 0.9 7.5) 50
(2.55 1.45 8.05) 50
(2 0.9 8.6) 50
(2.55 1.45 9.15) 50
(2 0.9 9.7) 75
(2.55 1.45 10.25) 75
(2 0.9 10.8) 75
(2.55 1.45 11.35) 75
(2 0.9 11.9) 75
(2.55 1.45 12.45) 75
(2 0.9 13) 100
(2.55 1.45 13.55) 100
(2 0.9 14.1) 100
(2.55 1.45 14.65) 100
(2 0.9 15.2) 100
(2.55 1.45 15.75) 100
(2 2 0.9) 0
(2.55 2.55 1.45) 0
(2 2 2) 0
(2.55 2.55 2.55) 0
(2.55 2.55 3.65) 25
(2 2 4.2) 25
(2.55 2.55 4.75) 25
(2 2 5.3) 25
(2 2 6.4) 50
(2.55 2.55 6.95) 50
(2.55 2.55 8.05) 50
(2 2 8.6) 50
(2.55 2.55 9.15) 50
(2 2 9.7) 75
(2.55 2.55 10.25) 75
(2.55 2.55 11.35) 75
(2 2 11.9) 75
(2 2 13) 100
(2.55 2.55 13.55) 100
(2 2 14.1) 100
(2.55 2.55 15.75) 100
(2 3.1 0.9) 0
(2.55 3.65 1.45) 5
(2 3.1 2) 0
(2.55 3.65 2.55) 5
(2 3.1 3.1) 0
(2.55 3.65 3.65) 30
(2 3.1 4.2) 25
(2.55 3.65 4.75) 30
(2 3.1 5.3) 25
(2.55 3.65 5.85) 30
(2 3.1 6.4) 50
(2.55 3.65 6.95) 55
(2 3.1 7.5) 50
(2.55 3.65 8.05) 55
(2 3.1 8.6) 50
(2.55 3.65 9.15) 55
(2 3.1 9.7) 75
(2.55 3.65 10.25) 80
(2 3.1 10.8) 75
(2.55 3.65 11.35) 80
(2.55 3.65 12.45) 80
(2 3.1 13) 100
(2 3.1 14.1) 100
(2.55 3.65 14.65) 105
(2 3.1 15.2) 100
(2.55 3.65 15.75) 105
(2 4.2 0.9) 5
(2.55 4.75 1.45) 5
(2.55 4.75 2.55) 5
(2.55 4.75 3.65) 30
(2 4.2 4.2) 30
(2.55 4.75 4.75) 30
(2 4.2 5.3) 30
(2.55 4.75 5.85) 30
(2 4.2 6.4) 55
(2.55 4.75 6.95) 55
(2 4.2 7.5) 55
(2.55 4.75 8.05) 55
(2 4.2 8.6) 55
(2.55 4.75 9.15) 55
(2 4.2 9.7) 80
(2.55 4.75 10.25) 80
(2 4.2 10.8) 80
(2.55 4.75 11.35) 80
(2 4.2 11.9) 80
(2.55 4.75 12.45) 80
(2 4.2 13) 105
(2.55 4.75 13.55) 105
(2 4.2 14.1) 105
(2.55 4.75 14.65) 105
(2 4.2 15.2) 105
(2.55 4.75 15.75) 105
(2 5.3 0.9) 5
(2 5.3 2) 5
(2 5.3 3.1) 5
(2.55 5.85 3.65) 30
(2 5.3 4.2) 30
(2.55 5.85 4.75) 30
(2 5.3 5.3) 30
(2.55 5.85 5.85) 30
(2 5.3 6.4) 55
(2.55 5.85 6.95) 55
(2 5.3 7.5) 55
(2.55 5.85 8.05) 55
(2 5.3 8.6) 55
(2.55 5.85 9.15) 55
(2 5.3 9.7) 80
(2.55 5.85 11.35) 80
(2 5.3 11.9) 80
(2 5.3 13) 105
(2 5.3 14.1) 105
(2.55 5.85 14.65) 105
(2 5.3 15.2) 105
(2.55 5.85 15.75) 105
(2.55 6.95 1.45) 10
(2 6.4 2) 10
(2.55 6.95 2.55) 10
(2.55 6.95 3.65) 35
(2 6.4 4.2) 35
(2 6.4 5.3) 35
(2.55 6.95 5.85) 35
(2 6.4 6.4) 55
(2.55 6.95 6.95) 60
(2 6.4 7.5) 60
(2.55 6.95 8.05) 60
(2.55 6.95 9.15) 60
(2 6.4 9.7) 80
(2.55 6.95 10.25) 85
(2 6.4 10.8) 80
(2 6.4 11.9) 80
(2.55 6.95 12.45) 85
(2 6.4 13) 110
(2.55 6.95 13.55) 110
(2 6.4 14.1) 110
(2.55 6.95 14.65) 110
(2 6.4 15.2) 110
(2.55 6.95 15.75) 110
(2 7.5 0.9) 10
(2 7.5 2) 10
(2.55 8.05 2.55) 10
(2.55 8.05 3.65) 35
(2 7.5 4.2) 35
(2.55 8.05 4.75) 35
(2 7.5 5.3) 35
(2.55 8.05 5.85) 35
(2.55 8.05 6.95) 60
(2 7.5 7.5) 60
(2.55 8.05 8.05) 60
(2 7.5 8.6) 60
(2.55 8.05 9.15) 60
(2 7.5 9.7) 85
(2.55 8.05 10.25) 85
(2 7.5 10.8) 85
(2.55 8.05 11.35) 85
(2 7.5 11.9) 85
(2.55 8.05 12.45) 85
(2 7.5 13) 110
(2.55 8.05 13.55) 110
(2 7.5 14.1) 110
(2.55 8.05 14.65) 110
(2 8.6 0.9) 10
(2.55 9.15 2.55) 10
(2 8.6 3.1) 10
(2.55 9.15 3.65) 35
(2 8.6 4.2) 35
(2.55 9.15 4.75) 35
(2 8.6 5.3) 35
(2.55 9.15 5.85) 35
(2 8.6 6.4) 60
(2.55 9.15 6.95) 60
(2 8.6 7.5) 60
(2.55 9.15 8.05) 60
(2 8.6 8.6) 60
(2.55 9.15 9.15) 60
(2 8.6 9.7) 85
(2.55 9.15 10.25) 85
(2 8.6 10.8) 85
(2.55 9.15 12.45) 85
(2.55 9.15 13.55) 110
(2 8.6 14.1) 110
(2 8.6 15.2) 110
(2.55 9.15 15.75) 110
(2 9.7 0.9) 15
(2 9.7 2) 15
(2.55 10.25 2.55) 15
(2 9.7 3.1) 15
(2.55 10.25 3.65) 40
(2 9.7 4.2) 40
(2.55 10.25 4.75) 40
(2 9.7 5.3) 40
(2.55 10.25 5.85) 40
(2.55 10.25 6.95) 65
(2 9.7 7.5) 65
(2.55 10.25 8.05) 65
(2.55 10.25 9.15) 65
(2 9.7 9.7) 90
(2.55 10.25 10.25) 90
(2.55 10.25 11.35) 90
(2 9.7 11.9) 90
(2.55 10.25 12.45) 90
(2 9.7 13) 115
(2 9.7 14.1) 115
(2.55 10.25 14.65) 115
(2 9.7 15.2) 115
(2 10.8 0.9) 15
(2 10.8 2) 15
(2.55 11.35 2.55) 15
(2 10.8 3.1) 15
(2.55 11.35 3.65) 40
(2 10.8 4.2) 40
(2.55 11.35 4.75) 40
(2 10.8 5.3) 40
(2.55 11.35 5.85) 40
(2 10.8 6.4) 40
(2.55 11.35 6.95) 65
(2.55 11.35 8.05) 65
(2 10.8 8.6) 65
(2 10.8 9.7) 90
(2.55 11.35 10.25) 90
(2 10.8 10.8) 90
(2.55 11.35 11.35) 90
(2 10.8 11.9) 90
(2.55 11.35 12.45) 90
(2 10.8 13) 115
(2.55 11.35 13.55) 115
(2 10.8 14.1) 115
(2.55 11.35 14.65) 115
(2.55 11.35 15.75) 115
(2 11.9 0.9) 15
(2.55 12.45 1.45) 15
(2.55 12.45 2.55) 15
(2 11.9 3.1) 15
(2.55 12.45 3.65) 40
(2 11.9 4.2) 40
(2.55 12.45 4.75) 40
(2 11.9 5.3) 40
(2.55 12.45 5.85) 40
(2 11.9 6.4) 40
(2.55 12.45 6.95) 65
(2 11.9 7.5) 65
(2 11.9 8.6) 65
(2.55 12.45 9.15) 65
(2 11.9 9.7) 90
(2 11.9 11.9) 90
(2 11.9 13) 115
(2.55 12.45 13.55) 115
(2 11.9 14.1) 115
(2.55 12.45 14.65) 115
(2 11.9 15.2) 115
(2 13 0.9) 20
(2.55 13.55 1.45) 20
(2 13 2) 20
(2.55 13.55 2.55) 20
(2 13 3.1) 20
(2.55 13.55 3.65) 45
(2 13 4.2) 45
(2 13 5.3) 45
(2.55 13.55 6.95) 70
(2 13 7.5) 70
(2.55 13.55 8.05) 70
(2 13 8.6) 70
(2.55 13.55 9.15) 70
(2 13 9.7) 95
(2.55 13.55 10.25) 95
(2 13 10.8) 95
(2.55 13.55 11.35) 95
(2 13 11.9) 95
(2.55 13.55 12.45) 95
(2 13 13) 120
(2.55 13.55 13.55) 120
(2 13 14.1) 120
(2.55 13.55 14.65) 120
(2 13 15.2) 120
(2.55 13.55 15.75) 120
(2 14.1 0.9) 20
(2.55 14.65 2.55) 20
(2 14.1 3.1) 20
(2 14.1 4.2) 45
(2.55 14.65 4.75) 45
(2 14.1 5.3) 45
(2.55 14.65 5.85) 45
(2 14.1 6.4) 70
(2 14.1 7.5) 70
(2.55 14.65 8.05) 70
(2 14.1 8.6) 70
(2 14.1 9.7) 95
(2.55 14.65 10.25) 95
(2 14.1 10.8) 95
(2 14.1 11.9) 95
(2 14.1 13) 120
(2.55 14.65 13.55) 120
(2 14.1 14.1) 120
(2 14.1 15.2) 120
(2.55 14.65 15.75) 120
(2 15.2 2) 20
(2.55 15.75 2.55) 20
(2 15.2 3.1) 20
(2 15.2 4.2) 45
(2.55 15.75 4.75) 45
(2 15.2 5.3) 45
(2.55 15.75 5.85) 45
(2 15.2 6.4) 45
(2.55 15.75 6.95) 70
(2 15.2 7.5) 70
(2 15.2 8.6) 70
(2.55 15.75 9.15) 70
(2 15.2 9.7) 95
(2.55 15.75 10.25) 95
(2 15.2 10.8) 95
(2 15.2 11.9) 95
(2.55 15.75 12.45) 95
(2 15.2 13) 120
(2.55 15.75 13.55) 120
(2 15.2 14.1) 120
(2.55 15.75 14.65) 120
(2 15.2 15.2) 120
(2.55 15.75 15.75) 120
(3.1 0.9 0.9) 0
(3.65 1.45 1.45) 1
(3.1 0.9 2) 0
(3.65 1.45 2.55) 1
(3.1 0.9 3.1) 0
(3.1 0.9 4.2) 25
(3.65 1.45 4.75) 26
(3.1 0.9 5.3) 25
(3.1 0.9 6.4) 50
(3.1 0.9 7.5) 50
(3.65 1.45 8.05) 51
(3.1 0.9 9.7) 75
(3.65 1.45 10.25) 76
(3.1 0.9 10.8) 75
(3.1 0.9 11.9) 75
(3.65 1.45 12.45) 76
(3.1 0.9 14.1) 100
(3.65 1.45 14.65) 101
(3.1 0.9 15.2) 100
(3.65 1.45 15.75) 101
(3.1 2 2) 0
(3.65 2.55 3.65) 26
(3.1 2 4.2) 25
(3.65 2.55 4.75) 26
(3.1 2 5.3) 25
(3.65 2.55 5.85) 26
(3.65 2.55 6.95) 51
(3.1 2 7.5) 50
(3.65 2.55 8.05) 51
(3.1 2 8.6) 50
(3.1 2 9.7) 75
(3.1 2 10.8) 75
(3.65 2.55 11.35) 76
(3.1 2 13) 100
(3.65 2.55 13.55) 101
(3.1 2 14.1) 100
(3.65 2.55 14.65) 101
(3.1 2 15.2) 100
(3.1 3.1 0.9) 0
(3.65 3.65 1.45) 6
(3.1 3.1 2) 0
(3.65 3.65 2.55) 6
(3.65 3.65 3.65) 31
(3.1 3.1 4.2) 25
(3.65 3.65 4.75) 31
(3.1 3.1 5.3) 25
(3.65 3.65 5.85) 31
(3.1 3.1 6.4) 50
(3.65 3.65 6.95) 56
(3.1 3.1 7.5) 50
(3.65 3.65 8.05) 56
(3.1 3.1 8.6) 50
(3.65 3.65 9.15) 56
(3.1 3.1 9.7) 75
(3.65 3.65 10.25) 81
(3.1 3.1 10.8) 75
(3.65 3.65 11.35) 81
(3.1 3.1 11.9) 75
(3.65 3.65 12.45) 81
(3.1 3.1 13) 100
(3.1 3.1 14.1) 100
(3.65 3.65 14.65) 106
(3.1 3.1 15.2) 100
(3.65 3.65 15.75) 106
(3.1 4.2 0.9) 5
(3.65 4.75 1.45) 6
(3.1 4.2 2) 5
(3.65 4.75 2.55) 6
(3.1 4.2 3.1) 5
(3.65 4.75 3.65) 31
(3.1 4.2 4.2) 30
(3.65 4.75 4.75) 31
(3.1 4.2 5.3) 30
(3.65 4.75 5.85) 31
(3.1 4.2 6.4) 55
(3.65 4.75 6.95) 56
(3.1 4.2 7.5) 55
(3.1 4.2 8.6) 55
(3.65 4.75 9.15) 56
(3.1 4.2 9.7) 80
(3.65 4.75 10.25) 81
(3.1 4.2 10.8) 80
(3.65 4.75 11.35) 81
(3.1 4.2 11.9) 80
(3.65 4.75 12.45) 81
(3.65 4.75 13.55) 106
(3.1 4.2 14.1) 105
(3.65 4.75 14.65) 106
(3.1 4.2 15.2) 105
(3.1 5.3 0.9) 5
(3.65 5.85 2.55) 6
(3.1 5.3 3.1) 5
(3.65 5.85 3.65) 31
(3.65 5.85 4.75) 31
(3.1 5.3 5.3) 30
(3.65 5.85 5.85) 31
(3.1 5.3 6.4) 55
(3.65 5.85 6.95) 56
(3.1 5.3 8.6) 55
(3.65 5.85 9.15) 56
(3.1 5.3 9.7) 80
(3.1 5.3 10.8) 80
(3.65 5.85 11.35) 81
(3.65 5.85 12.45) 81
(3.1 5.3 13) 105
(3.65 5.85 13.55) 106
(3.1 5.3 14.1) 105
(3.1 5.3 15.2) 105
(3.65 5.85 15.75) 106
(3.1 6.4 0.9) 10
(3.65 6.95 1.45) 11
(3.1 6.4 2) 10
(3.65 6.95 2.55) 11
(3.1 6.4 3.1) 10
(3.65 6.95 3.65) 36
(3.1 6.4 5.3) 35
(3.65 6.95 5.85) 36
(3.1 6.4 6.4) 55
(3.1 6.4 7.5) 60
(3.1 6.4 8.6) 60
(3.65 6.95 9.15) 61
(3.1 6.4 9.7) 80
(3.65 6.95 10.25) 86
(3.65 6.95 11.35) 86
(3.1 6.4 11.9) 80
(3.65 6.95 12.45) 86
(3.65 6.95 13.55) 111
(3.1 6.4 14.1) 110
(3.1 6.4 15.2) 110
(3.65 6.95 15.75) 111
(3.65 8.05 1.45) 11
(3.65 8.05 2.55) 11
(3.65 8.05 3.65) 36
(3.1 7.5 5.3) 35
(3.65 8.05 5.85) 36
(3.1 7.5 6.4) 60
(3.1 7.5 7.5) 60
(3.65 8.05 8.05) 61
(3.1 7.5 8.6) 60
(3.65 8.05 9.15) 61
(3.65 8.05 10.25) 86
(3.1 7.5 10.8) 85
(3.65 8.05 11.35) 86
(3.65 8.05 12.45) 86
(3.1 7.5 13) 110
(3.65 8.05 13.55) 111
(3.1 7.5 14.1) 110
(3.65 8.05 14.65) 111
(3.1 7.5 15.2) 110
(3.65 8.05 15.75) 111
(3.1 8.6 0.9) 10
(3.1 8.6 2) 10
(3.65 9.15 2.55) 11
(3.1 8.6 3.1) 10
(3.65 9.15 3.65) 36
(3.1 8.6 4.2) 35
(3.65 9.15 4.75) 36
(3.1 8.6 5.3) 35
(3.65 9.15 5.85) 36
(3.1 8.6 7.5) 60
(3.65 9.15 8.05) 61
(3.1 8.6 8.6) 60
(3.65 9.15 9.15) 61
(3.1 8.6 9.7) 85
(3.65 9.15 10.25) 86
(3.1 8.6 10.8) 85
(3.65 9.15 12.45) 86
(3.1 8.6 13) 110
(3.65 9.15 13.55) 111
(3.1 8.6 14.1) 110
(3.65 9.15 14.65) 111
(3.1 8.6 15.2) 110
(3.65 9.15 15.75) 111
(3.65 10.25 1.45) 16
(3.1 9.7 2) 15
(3.65 10.25 2.55) 16
(3.1 9.7 3.1) 15
(3.65 10.25 3.65) 41
(3.1 9.7 5.3) 40
(3.65 10.25 5.85) 41
(3.1 9.7 6.4) 40
(3.1 9.7 7.5) 65
(3.1 9.7 8.6) 65
(3.1 9.7 9.7) 90
(3.65 10.25 10.25) 91
(3.1 9.7 10.8) 90
(3.65 10.25 11.35) 91
(3.1 9.7 11.9) 90
(3.65 10.25 12.45) 91
(3.1 9.7 13) 115
(3.65 10.25 13.55) 116
(3.1 9.7 14.1) 115
(3.1 9.7 15.2) 115
(3.65 10.25 15.75) 116
(3.1 10.8 0.9) 15
(3.65 11.35 1.45) 16
(3.1 10.8 2) 15
(3.65 11.35 2.55) 16
(3.1 10.8 3.1) 15
(3.65 11.35 3.65) 41
(3.1 10.8 4.2) 40
(3.65 11.35 4.75) 41
(3.1 10.8 5.3) 40
(3.65 11.35 5.85) 41
(3.1 10.8 6.4) 40
(3.65 11.35 6.95) 66
(3.1 10.8 7.5) 65
(3.65 11.35 8.05) 66
(3.1 10.8 8.6) 65
(3.65 11.35 9.15) 66
(3.1 10.8 9.7) 90
(3.65 11.35 10.25) 91
(3.1 10.8 10.8) 90
(3.65 11.35 11.35) 91
(3.1 10.8 11.9) 90
(3.65 11.35 12.45) 91
(3.1 10.8 13) 115
(3.65 11.35 13.55) 116
(3.65 11.35 14.65) 116
(3.1 10.8 15.2) 115
(3.65 11.35 15.75) 116
(3.65 12.45 1.45) 16
(3.1 11.9 2) 15
(3.65 12.45 2.55) 16
(3.1 11.9 3.1) 15
(3.65 12.45 3.65) 41
(3.1 11.9 4.2) 40
(3.65 12.45 4.75) 41
(3.1 11.9 5.3) 40
(3.65 12.45 5.85) 41
(3.1 11.9 6.4) 40
(3.65 12.45 6.95) 66
(3.1 11.9 7.5) 65
(3.1 11.9 8.6) 65
(3.65 12.45 9.15) 66
(3.65 12.45 10.25) 91
(3.1 11.9 10.8) 90
(3.1 11.9 11.9) 90
(3.65 12.45 12.45) 91
(3.1 11.9 13) 115
(3.65 12.45 13.55) 116
(3.1 11.9 14.1) 115
(3.65 12.45 14.65) 116
(3.65 12.45 15.75) 116
(3.1 13 0.9) 20
(3.65 13.55 1.45) 21
(3.1 13 2) 20
(3.65 13.55 2.55) 21
(3.1 13 3.1) 20
(3.65 13.55 3.65) 46
(3.1 13 4.2) 45
(3.65 13.55 4.75) 46
(3.1 13 5.3) 45
(3.1 13 6.4) 70
(3.65 13.55 6.95) 71
(3.1 13 7.5) 70
(3.65 13.55 8.05) 71
(3.1 13 8.6) 70
(3.65 13.55 9.15) 71
(3.65 13.55 10.25) 96
(3.1 13 10.8) 95
(3.65 13.55 11.35) 96
(3.1 13 11.9) 95
(3.65 13.55 12.45) 96
(3.1 13 13) 120
(3.65 13.55 13.55) 121
(3.1 13 14.1) 120
(3.1 13 15.2) 120
(3.1 14.1 0.9) 20
(3.65 14.65 1.45) 21
(3.1 14.1 2) 20
(3.65 14.65 3.65) 46
(3.1 14.1 4.2) 45
(3.65 14.65 4.75) 46
(3.1 14.1 5.3) 45
(3.1 14.1 6.4) 70
(3.65 14.65 6.95) 71
(3.1 14.1 7.5) 70
(3.65 14.65 8.05) 71
(3.1 14.1 8.6) 70
(3.65 14.65 9.15) 71
(3.65 14.65 10.25) 96
(3.1 14.1 10.8) 95
(3.65 14.65 12.45) 96
(3.65 14.65 13.55) 121
(3.1 14.1 14.1) 120
(3.1 14.1 15.2) 120
(3.65 14.65 15.75) 121
(3.65 15.75 1.45) 21
(3.1 15.2 2) 20
(3.65 15.75 2.55) 21
(3.65 15.75 3.65) 46
(3.1 15.2 6.4) 45
(3.65 15.75 6.95) 71
(3.65 15.75 8.05) 71
(3.1 15.2 8.6) 70
(3.65 15.75 9.15) 71
(3.1 15.2 9.7) 95
(3.65 15.75 10.25) 96
(3.1 15.2 10.8) 95
(3.65 15.75 11.35) 96
(3.65 15.75 12.45) 96
(3.65 15.75 13.55) 121
(3.1 15.2 15.2) 120
(3.65 15.75 15.75) 121
(4.2 0.9 0.9) 1
(4.75 1.45 1.45) 1
(4.2 0.9 2) 1
(4.75 1.45 2.55) 1
(4.2 0.9 3.1) 1
(4.75 1.45 3.65) 26
(4.75 1.45 4.75) 26
(4.2 0.9 5.3) 26
(4.75 1.45 5.85) 26
(4.2 0.9 6.4) 26
(4.75 1.45 6.95) 51
(4.2 0.9 7.5) 51
(4.75 1.45 8.05) 51
(4.2 0.9 9.7) 76
(4.75 1.45 10.25) 76
(4.2 0.9 10.8) 76
(4.75 1.45 11.35) 76
(4.2 0.9 11.9) 76
(4.75 1.45 12.45) 76
(4.2 0.9 13) 101
(4.75 1.45 13.55) 101
(4.2 0.9 15.2) 101
(4.75 1.45 15.75) 101
(4.2 2 0.9) 1
(4.75 2.55 1.45) 1
(4.2 2 2) 1
(4.75 2.55 2.55) 1
(4.2 2 3.1) 1
(4.75 2.55 3.65) 26
(4.2 2 4.2) 26
(4.75 2.55 4.75) 26
(4.2 2 5.3) 26
(4.75 2.55 5.85) 26
(4.2 2 6.4) 26
(4.75 2.55 6.95) 51
(4.2 2 7.5) 51
(4.2 2 8.6) 51
(4.75 2.55 9.15) 51
(4.2 2 9.7) 76
(4.2 2 10.8) 76
(4.75 2.55 11.35) 76
(4.2 2 11.9) 76
(4.75 2.55 12.45) 76
(4.2 2 14.1) 101
(4.75 2.55 14.65) 101
(4.2 2 15.2) 101
(4.2 3.1 0.9) 1
(4.75 3.65 1.45) 6
(4.75 3.65 2.55) 6
(4.2 3.1 3.1) 1
(4.75 3.65 4.75) 31
(4.2 3.1 6.4) 26
(4.75 3.65 6.95) 56
(4.2 3.1 7.5) 51
(4.75 3.65 8.05) 56
(4.2 3.1 8.6) 51
(4.75 3.65 9.15) 56
(4.2 3.1 9.7) 76
(4.75 3.65 10.25) 81
(4.2 3.1 10.8) 76
(4.75 3.65 11.35) 81
(4.2 3.1 11.9) 76
(4.75 3.65 12.45) 81
(4.2 3.1 13) 101
(4.2 3.1 15.2) 101
(4.75 3.65 15.75) 106
(4.2 4.2 0.9) 6
(4.75 4.75 1.45) 6
(4.2 4.2 2) 6
(4.75 4.75 2.55) 6
(4.2 4.2 3.1) 6
(4.75 4.75 3.65) 31
(4.75 4.75 4.75) 31
(4.2 4.2 5.3) 31
(4.75 4.75 5.85) 31
(4.2 4.2 6.4) 31
(4.2 4.2 7.5) 56
(4.75 4.75 8.05) 56
(4.2 4.2 8.6) 56
(4.75 4.75 9.15) 56
(4.2 4.2 9.7) 81
(4.75 4.75 10.25) 81
(4.2 4.2 10.8) 81
(4.75 4.75 11.35) 81
(4.75 4.75 12.45) 81
(4.2 4.2 13) 106
(4.75 4.75 13.55) 106
(4.2 4.2 14.1) 106
(4.75 4.75 14.65) 106
(4.2 4.2 15.2) 106
(4.75 4.75 15.75) 106
(4.2 5.3 0.9) 6
(4.2 5.3 2) 6
(4.75 5.85 2.55) 6
(4.2 5.3 4.2) 31
(4.2 5.3 5.3) 31
(4.2 5.3 6.4) 56
(4.75 5.85 6.95) 56
(4.2 5.3 7.5) 56
(4.75 5.85 8.05) 56
(4.75 5.85 9.15) 56
(4.75 5.85 10.25) 81
(4.2 5.3 10.8) 81
(4.75 5.85 11.35) 81
(4.75 5.85 12.45) 81
(4.2 5.3 13) 106
(4.75 5.85 13.55) 106
(4.2 5.3 14.1) 106
(4.75 5.85 14.65) 106
(4.2 5.3 15.2) 106
(4.75 5.85 15.75) 106
(4.2 6.4 0.9) 11
(4.75 6.95 1.45) 11
(4.2 6.4 2) 11
(4.75 6.95 2.55) 11
(4.2 6.4 3.1) 11
(4.2 6.4 4.2) 31
(4.2 6.4 5.3) 36
(4.75 6.95 5.85) 36
(4.2 6.4 6.4) 61
(4.75 6.95 6.95) 61
(4.2 6.4 7.5) 61
(4.75 6.95 8.05) 61
(4.2 6.4 8.6) 56
(4.75 6.95 9.15) 61
(4.75 6.95 10.25) 86
(4.75 6.95 11.35) 86
(4.2 6.4 11.9) 86
(4.75 6.95 12.45) 86
(4.2 6.4 13) 106
(4.75 6.95 14.65) 111
(4.2 6.4 15.2) 111
(4.2 7.5 0.9) 11
(4.75 8.05 1.45) 11
(4.2 7.5 2) 11
(4.75 8.05 2.55) 11
(4.2 7.5 3.1) 11
(4.2 7.5 4.2) 36
(4.75 8.05 4.75) 36
(4.75 8.05 5.85) 36
(4.75 8.05 6.95) 61
(4.2 7.5 7.5) 61
(4.2 7.5 9.7) 86
(4.75 8.05 10.25) 86
(4.2 7.5 10.8) 86
(4.75 8.05 11.35) 86
(4.2 7.5 11.9) 86
(4.75 8.05 12.45) 86
(4.2 7.5 13) 111
(4.75 8.05 13.55) 111
(4.2 7.5 14.1) 111
(4.75 8.05 14.65) 111
(4.2 7.5 15.2) 111
(4.75 8.05 15.75) 111
(4.75 9.15 1.45) 11
(4.2 8.6 2) 11
(4.75 9.15 2.55) 11
(4.2 8.6 3.1) 11
(4.75 9.15 3.65) 36
(4.75 9.15 4.75) 36
(4.2 8.6 5.3) 36
(4.75 9.15 5.85) 36
(4.2 8.6 6.4) 36
(4.75 9.15 6.95) 61
(4.2 8.6 7.5) 61
(4.75 9.15 8.05) 61
(4.2 8.6 8.6) 61
(4.75 9.15 9.15) 61
(4.2 8.6 9.7) 86
(4.75 9.15 10.25) 86
(4.2 8.6 10.8) 86
(4.75 9.15 11.35) 86
(4.2 8.6 11.9) 86
(4.2 8.6 13) 111
(4.75 9.15 13.55) 111
(4.2 8.6 14.1) 111
(4.75 9.15 14.65) 111
(4.2 8.6 15.2) 111
(4.75 9.15 15.75) 111
(4.2 9.7 0.9) 16
(4.75 10.25 1.45) 16
(4.2 9.7 2) 16
(4.75 10.25 2.55) 16
(4.2 9.7 3.1) 16
(4.2 9.7 4.2) 41
(4.75 10.25 4.75) 41
(4.2 9.7 5.3) 41
(4.75 10.25 5.85) 41
(4.2 9.7 6.4) 41
(4.75 10.25 6.95) 66
(4.2 9.7 7.5) 66
(4.2 9.7 8.6) 66
(4.2 9.7 9.7) 91
(4.75 10.25 10.25) 91
(4.2 9.7 10.8) 91
(4.2 9.7 11.9) 91
(4.75 10.25 12.45) 91
(4.2 9.7 13) 116
(4.75 10.25 13.55) 116
(4.75 10.25 14.65) 116
(4.2 9.7 15.2) 116
(4.75 10.25 15.75) 116
(4.2 10.8 0.9) 16
(4.75 11.35 1.45) 16
(4.2 10.8 3.1) 16
(4.2 10.8 4.2) 41
(4.75 11.35 4.75) 41
(4.2 10.8 5.3) 41
(4.75 11.35 5.85) 41
(4.2 10.8 6.4) 41
(4.75 11.35 6.95) 66
(4.2 10.8 7.5) 66
(4.75 11.35 8.05) 66
(4.2 10.8 8.6) 66
(4.2 10.8 9.7) 91
(4.75 11.35 10.25) 91
(4.2 10.8 10.8) 91
(4.75 11.35 11.35) 91
(4.2 10.8 11.9) 91
(4.75 11.35 12.45) 91
(4.2 10.8 13) 116
(4.75 11.35 13.55) 116
(4.2 10.8 14.1) 116
(4.75 11.35 14.65) 116
(4.2 10.8 15.2) 116
(4.75 11.35 15.75) 116
(4.75 12.45 1.45) 16
(4.75 12.45 2.55) 16
(4.2 11.9 3.1) 16
(4.75 12.45 3.65) 41
(4.2 11.9 4.2) 41
(4.75 12.45 4.75) 41
(4.2 11.9 5.3) 41
(4.75 12.45 5.85) 41
(4.2 11.9 6.4) 66
(4.75 12.45 6.95) 66
(4.2 11.9 7.5) 66
(4.75 12.45 8.05) 66
(4.2 11.9 8.6) 66
(4.75 12.45 9.15) 66
(4.2 11.9 9.7) 91
(4.75 12.45 10.25) 91
(4.75 12.45 11.35) 91
(4.2 11.9 11.9) 91
(4.2 11.9 13) 116
(4.75 12.45 13.55) 116
(4.2 11.9 14.1) 116
(4.2 11.9 15.2) 116
(4.2 13 0.9) 21
(4.75 13.55 1.45) 21
(4.2 13 2) 21
(4.75 13.55 2.55) 21
(4.2 13 3.1) 21
(4.75 13.55 3.65) 46
(4.2 13 4.2) 46
(4.75 13.55 4.75) 46
(4.2 13 5.3) 46
(4.75 13.55 5.85) 46
(4.2 13 6.4) 71
(4.75 13.55 6.95) 71
(4.2 13 7.5) 71
(4.75 13.55 8.05) 71
(4.75 13.55 9.15) 71
(4.2 13 9.7) 96
(4.75 13.55 10.25) 96
(4.2 13 10.8) 96
(4.2 13 11.9) 96
(4.75 13.55 12.45) 96
(4.2 13 13) 121
(4.75 13.55 13.55) 121
(4.2 13 14.1) 121
(4.75 13.55 14.65) 121
(4.2 13 15.2) 121
(4.75 13.55 15.75) 121
(4.2 14.1 0.9) 21
(4.75 14.65 1.45) 21
(4.75 14.65 2.55) 21
(4.2 14.1 3.1) 21
(4.75 14.65 3.65) 46
(4.2 14.1 4.2) 46
(4.2 14.1 5.3) 46
(4.2 14.1 6.4) 71
(4.75 14.65 6.95) 71
(4.2 14.1 7.5) 71
(4.75 14.65 8.05) 71
(4.2 14.1 8.6) 71
(4.75 14.65 9.15) 71
(4.75 14.65 10.25) 96
(4.2 14.1 10.8) 96
(4.75 14.65 11.35) 96
(4.75 14.65 12.45) 96
(4.2 14.1 13) 121
(4.75 14.65 13.55) 121
(4.2 14.1 14.1) 121
(4.75 14.65 14.65) 121
(4.2 14.1 15.2) 121
(4.75 14.65 15.75) 121
(4.2 15.2 0.9) 21
(4.75 15.75 1.45) 21
(4.2 15.2 2) 21
(4.75 15.75 2.55) 21
(4.2 15.2 3.1) 21
(4.75 15.75 3.65) 46
(4.2 15.2 4.2) 46
(4.75 15.75 4.75) 46
(4.2 15.2 5.3) 46
(4.75 15.75 5.85) 46
(4.75 15.75 6.95) 71
(4.2 15.2 7.5) 71
(4.75 15.75 8.05) 71
(4.2 15.2 8.6) 71
(4.75 15.75 9.15) 71
(4.2 15.2 9.7) 96
(4.75 15.75 10.25) 96
(4.2 15.2 10.8) 96
(4.2 15.2 11.9) 96
(4.75 15.75 12.45) 96
(4.2 15.2 13) 121
(4.75 15.75 13.55) 121
(4.75 15.75 14.65) 121
(4.2 15.2 15.2) 121
(5.3 0.9 0.9) 1
(5.85 1.45 1.45) 1
(5.3 0.9 2) 1
(5.85 1.45 2.55) 1
(5.3 0.9 3.1) 1
(5.85 1.45 3.65) 26
(5.3 0.9 4.2) 26
(5.85 1.45 4.75) 26
(5.85 1.45 5.85) 26
(5.3 0.9 6.4) 51
(5.85 1.45 6.95) 51
(5.3 0.9 7.5) 51
(5.85 1.45 8.05) 51
(5.3 0.9 8.6) 51
(5.85 1.45 9.15) 51
(5.85 1.45 10.25) 76
(5.3 0.9 10.8) 76
(5.85 1.45 11.35) 76
(5.3 0.9 11.9) 76
(5.85 1.45 12.45) 76
(5.3 0.9 13) 101
(5.3 0.9 14.1) 101
(5.85 1.45 14.65) 101
(5.3 0.9 15.2) 101
(5.85 1.45 15.75) 101
(5.3 2 0.9) 1
(5.85 2.55 1.45) 1
(5.3 2 2) 1
(5.85 2.55 2.55) 1
(5.3 2 3.1) 1
(5.85 2.55 3.65) 26
(5.3 2 4.2) 26
(5.85 2.55 4.75) 26
(5.3 2 5.3) 26
(5.3 2 6.4) 51
(5.85 2.55 6.95) 51
(5.3 2 7.5) 51
(5.85 2.55 8.05) 51
(5.3 2 8.6) 51
(5.3 2 9.7) 76
(5.85 2.55 10.25) 76
(5.3 2 11.9) 76
(5.85 2.55 12.45) 76
(5.3 2 13) 101
(5.3 2 14.1) 101
(5.85 2.55 15.75) 101
(5.3 3.1 0.9) 1
(5.85 3.65 1.45) 6
(5.3 3.1 2) 1
(5.85 3.65 2.55) 6
(5.3 3.1 3.1) 1
(5.85 3.65 3.65) 31
(5.3 3.1 4.2) 26
(5.3 3.1 5.3) 26
(5.85 3.65 6.95) 56
(5.85 3.65 8.05) 56
(5.3 3.1 8.6) 51
(5.85 3.65 10.25) 81
(5.3 3.1 10.8) 76
(5.85 3.65 11.35) 81
(5.3 3.1 11.9) 76
(5.85 3.65 12.45) 81
(5.3 3.1 13) 101
(5.85 3.65 13.55) 106
(5.3 3.1 14.1) 101
(5.3 3.1 15.2) 101
(5.85 4.75 1.45) 6
(5.3 4.2 2) 6
(5.85 4.75 2.55) 6
(5.3 4.2 3.1) 6
(5.3 4.2 4.2) 31
(5.85 4.75 5.85) 31
(5.85 4.75 6.95) 56
(5.3 4.2 7.5) 56
(5.85 4.75 8.05) 56
(5.85 4.75 9.15) 56
(5.3 4.2 9.7) 81
(5.85 4.75 10.25) 81
(5.3 4.2 10.8) 81
(5.3 4.2 11.9) 81
(5.3 4.2 13) 106
(5.85 4.75 13.55) 106
(5.85 4.75 14.65) 106
(5.3 4.2 15.2) 106
(5.85 4.75 15.75) 106
(5.3 5.3 0.9) 6
(5.85 5.85 1.45) 6
(5.3 5.3 2) 6
(5.85 5.85 2.55) 6
(5.3 5.3 3.1) 6
(5.85 5.85 3.65) 31
(5.3 5.3 4.2) 31
(5.85 5.85 4.75) 31
(5.3 5.3 5.3) 31
(5.3 5.3 6.4) 56
(5.85 5.85 6.95) 56
(5.85 5.85 8.05) 56
(5.3 5.3 8.6) 56
(5.85 5.85 9.15) 56
(5.85 5.85 10.25) 81
(5.85 5.85 11.35) 81
(5.3 5.3 11.9) 81
(5.85 5.85 12.45) 81
(5.3 5.3 13) 106
(5.85 5.85 13.55) 106
(5.85 5.85 14.65) 106
(5.3 5.3 15.2) 106
(5.85 5.85 15.75) 106
(5.3 6.4 0.9) 11
(5.85 6.95 1.45) 11
(5.3 6.4 2) 11
(5.3 6.4 3.1) 11
(5.85 6.95 3.65) 36
(5.3 6.4 4.2) 36
(5.85 6.95 4.75) 36
(5.3 6.4 5.3) 36
(5.3 6.4 6.4) 61
(5.85 6.95 6.95) 61
(5.3 6.4 7.5) 56
(5.85 6.95 8.05) 61
(5.3 6.4 8.6) 56
(5.3 6.4 9.7) 81
(5.85 6.95 10.25) 86
(5.3 6.4 10.8) 81
(5.85 6.95 11.35) 86
(5.85 6.95 12.45) 86
(5.85 6.95 13.55) 111
(5.3 6.4 14.1) 106
(5.85 6.95 14.65) 111
(5.3 6.4 15.2) 111
(5.85 6.95 15.75) 111
(5.3 7.5 0.9) 11
(5.85 8.05 1.45) 11
(5.85 8.05 2.55) 11
(5.85 8.05 3.65) 36
(5.3 7.5 4.2) 36
(5.85 8.05 4.75) 36
(5.85 8.05 5.85) 36
(5.3 7.5 6.4) 61
(5.85 8.05 6.95) 61
(5.3 7.5 8.6) 61
(5.85 8.05 9.15) 61
(5.3 7.5 9.7) 86
(5.85 8.05 10.25) 86
(5.3 7.5 10.8) 86
(5.85 8.05 11.35) 86
(5.3 7.5 11.9) 86
(5.85 8.05 12.45) 86
(5.3 7.5 13) 111
(5.85 8.05 13.55) 111
(5.3 7.5 14.1) 111
(5.85 8.05 14.65) 111
(5.3 7.5 15.2) 111
(5.85 8.05 15.75) 111
(5.3 8.6 0.9) 11
(5.85 9.15 1.45) 11
(5.85 9.15 2.55) 11
(5.3 8.6 3.1) 11
(5.85 9.15 3.65) 36
(5.85 9.15 4.75) 36
(5.3 8.6 5.3) 36
(5.3 8.6 6.4) 36
(5.85 9.15 6.95) 61
(5.85 9.15 8.05) 61
(5.85 9.15 9.15) 61
(5.3 8.6 9.7) 86
(5.85 9.15 10.25) 86
(5.3 8.6 10.8) 86
(5.85 9.15 11.35) 86
(5.3 8.6 11.9) 86
(5.85 9.15 12.45) 86
(5.3 8.6 13) 111
(5.3 8.6 14.1) 111
(5.85 9.15 14.65) 111
(5.3 8.6 15.2) 111
(5.85 9.15 15.75) 111
(5.85 10.25 1.45) 16
(5.85 10.25 2.55) 16
(5.3 9.7 3.1) 16
(5.3 9.7 4.2) 41
(5.85 10.25 4.75) 41
(5.3 9.7 5.3) 41
(5.85 10.25 5.85) 41
(5.3 9.7 6.4) 41
(5.85 10.25 6.95) 66
(5.3 9.7 7.5) 66
(5.3 9.7 8.6) 66
(5.85 10.25 9.15) 66
(5.85 10.25 10.25) 91
(5.3 9.7 10.8) 91
(5.3 9.7 11.9) 91
(5.85 10.25 12.45) 91
(5.3 9.7 14.1) 116
(5.85 10.25 14.65) 116
(5.3 9.7 15.2) 116
(5.85 10.25 15.75) 116
(5.3 10.8 0.9) 16
(5.3 10.8 2) 16
(5.85 11.35 2.55) 16
(5.3 10.8 3.1) 16
(5.85 11.35 3.65) 41
(5.3 10.8 4.2) 41
(5.85 11.35 4.75) 41
(5.3 10.8 5.3) 41
(5.85 11.35 5.85) 41
(5.3 10.8 6.4) 41
(5.85 11.35 6.95) 66
(5.3 10.8 7.5) 66
(5.85 11.35 8.05) 66
(5.3 10.8 8.6) 66
(5.85 11.35 9.15) 66
(5.3 10.8 9.7) 91
(5.85 11.35 10.25) 91
(5.3 10.8 10.8) 91
(5.85 11.35 11.35) 91
(5.3 10.8 11.9) 91
(5.3 10.8 13) 116
(5.85 11.35 13.55) 116
(5.3 10.8 14.1) 116
(5.3 11.9 0.9) 16
(5.85 12.45 1.45) 16
(5.85 12.45 2.55) 16
(5.3 11.9 3.1) 16
(5.85 12.45 3.65) 41
(5.3 11.9 4.2) 41
(5.85 12.45 4.75) 41
(5.85 12.45 5.85) 41
(5.3 11.9 6.4) 66
(5.85 12.45 8.05) 66
(5.85 12.45 9.15) 66
(5.3 11.9 9.7) 91
(5.85 12.45 10.25) 91
(5.3 11.9 10.8) 91
(5.85 12.45 11.35) 91
(5.3 11.9 11.9) 91
(5.85 12.45 12.45) 91
(5.3 11.9 13) 116
(5.85 12.45 13.55) 116
(5.3 11.9 14.1) 116
(5.85 12.45 14.65) 116
(5.85 12.45 15.75) 116
(5.3 13 0.9) 21
(5.85 13.55 1.45) 21
(5.85 13.55 2.55) 21
(5.3 13 3.1) 21
(5.85 13.55 3.65) 46
(5.3 13 4.2) 46
(5.85 13.55 4.75) 46
(5.85 13.55 5.85) 46
(5.3 13 6.4) 71
(5.3 13 7.5) 71
(5.3 13 8.6) 71
(5.85 13.55 9.15) 71
(5.85 13.55 10.25) 96
(5.3 13 10.8) 96
(5.85 13.55 11.35) 96
(5.3 13 13) 121
(5.85 13.55 13.55) 121
(5.85 13.55 14.65) 121
(5.85 13.55 15.75) 121
(5.85 14.65 1.45) 21
(5.85 14.65 2.55) 21
(5.3 14.1 3.1) 21
(5.85 14.65 3.65) 46
(5.3 14.1 4.2) 46
(5.3 14.1 5.3) 46
(5.85 14.65 5.85) 46
(5.3 14.1 6.4) 71
(5.85 14.65 6.95) 71
(5.85 14.65 8.05) 71
(5.3 14.1 8.6) 71
(5.85 14.65 9.15) 71
(5.3 14.1 9.7) 96
(5.85 14.65 10.25) 96
(5.85 14.65 11.35) 96
(5.3 14.1 11.9) 96
(5.85 14.65 12.45) 96
(5.3 14.1 13) 121
(5.85 14.65 13.55) 121
(5.3 14.1 14.1) 121
(5.85 14.65 14.65) 121
(5.3 14.1 15.2) 121
(5.3 15.2 0.9) 21
(5.85 15.75 1.45) 21
(5.3 15.2 2) 21
(5.85 15.75 2.55) 21
(5.3 15.2 3.1) 21
(5.85 15.75 3.65) 46
(5.3 15.2 4.2) 46