/*--------------------------------*- C++ -*----------------------------------*\
| =========                 |                                                 |
| \\      /  F ield         | OpenFOAM: The Open Source CFD Toolbox           |
|  \\    /   O peration     | Version:  2.4.0-MNF                             |
|   \\  /    A nd           | Web:      www.OpenFOAM.org                      |
|    \\/     M anipulation  |                                                 |
\*---------------------------------------------------------------------------*/
FoamFile
{
    version     2.0;
    format      ascii;
    class       tensorField;
    location    "0/lagrangian/polyMoleculeCloud";
    object      Q;
}
// * * * * * * * * * * * * * * * * * * * * * * * * * * * * * * * * * * * * * //


4298
(
(-0.170349056515328 -0.490730651560585 -0.854496709509909 0.387586933296101 0.763904087173012 -0.515971815837348 0.90595671424327 -0.419087071166948 0.0600704477946398)
(0.391216370624373 -0.823369865283454 -0.411110467269565 -0.906362919945055 -0.267266581589795 -0.327222908296439 0.159549392678779 0.500630242103303 -0.85083097733182)
(0.813464944076434 -0.36894451959365 -0.449616198796858 0.551236959561833 0.735632071053033 0.393679146579103 0.185506331891259 -0.568089251350557 0.801786756767791)
(0.402812467588109 0.738560644038081 -0.540620283594349 0.853281258015681 -0.0893255765841575 0.51374316159642 0.331139261753656 -0.668243306323351 -0.66618141138828)
(-0.755281702153628 0.48625830431095 0.439434195165281 0.598596465167327 0.238761433296962 0.76464060175952 0.26689290414153 0.840562811132291 -0.471404643867963)
(0.629206748867095 -0.507386426421562 -0.588776597244878 -0.253302328935768 0.582302594362562 -0.772503474914091 0.734803917610553 0.635202883244233 0.237866558772764)
(0.986529617041144 -0.137750528508953 0.0882275841002049 -0.0717789317359461 0.120125959513458 0.990160360148707 -0.146993536114691 -0.983155402643181 0.108620231053077)
(0.768441046493089 -0.378842518490518 -0.515729293572091 -0.202642568540142 0.62038961466199 -0.757662665989952 0.606987930258964 0.686727800662904 0.399963223705169)
(0.751284939588536 0.198522693324915 -0.629412170030475 -0.646778158613541 0.0316850242824408 -0.762019732537615 -0.13133526977902 0.979583993066058 0.152204623585584)
(0.174520842664725 -0.571390621347024 -0.801907247324936 0.903726641787019 -0.230381436906025 0.360835905161158 -0.390922795958424 -0.787678329882051 0.476174564875394)
(0.777018103764965 -0.624683265473148 0.077547948130838 -0.33430409456142 -0.513901209989515 -0.790029315108485 0.533370076758125 0.587942483759353 -0.608144717160245)
(-0.727722547120489 0.511498624195691 0.456934406516277 0.459049372396555 0.858224611605147 -0.229617485696371 -0.509601381586428 0.0426576309833236 -0.859352522777523)
(-0.0643962296153057 -0.139089743306198 -0.98818377284711 -0.288437999852683 -0.945379114542276 0.151861285482004 -0.955330647395087 0.294809045136473 0.0207600831743161)
(-0.937728137714824 0.317018371990216 -0.142004547668595 0.241308496611414 0.888556254888325 0.390176871895264 0.249872265769989 0.331612927551848 -0.909723428894444)
(-0.526498352631399 0.849204940031955 0.040625786167742 -0.596542714540376 -0.403052873466424 0.694035424830216 0.605752651174737 0.3411734910801 0.718793694031183)
(-0.878917725689904 -0.47691387870109 0.00753550067134683 -0.476810778647068 0.878920916213795 0.0122271995109758 -0.0124544302986214 0.0071536944431432 -0.999896850590975)
(-0.944862766191619 0.242598543726494 0.219955221912338 -0.253760132138778 -0.117886300101182 -0.960056568950686 -0.206978618223311 -0.96293757161627 0.172948214122409)
(-0.241826670657568 -0.32560440919184 0.91405778267761 0.685482003012128 -0.724052408733226 -0.0765671793531359 0.686756350465838 0.608054173674063 0.398291145987952)
(-0.0345174307687287 -0.538476787779474 -0.841933070971692 0.861971895784363 0.41030009060534 -0.297755413934258 0.505779594142585 -0.73600039719551 0.449989352626274)
(-0.723234661375134 -0.105484231358851 0.682498865581641 -0.0313031306889911 -0.982243054061368 -0.184982963424378 0.689892555833633 -0.155150442096789 0.707090235912297)
(-0.147092821059259 -0.637208589354061 -0.756524233350285 0.0321028937538421 -0.767516236927813 0.640225140294255 -0.988601591241618 0.069885904913491 0.133352368141568)
(0.133834645673456 0.153119108529672 -0.979103072316975 0.768735186402821 0.607465709575804 0.200079046568563 0.625407467818926 -0.779448491109351 -0.0364080884375384)
(-0.640462556062264 0.740913798159516 0.20212485740015 0.737634431893625 0.666723576682353 -0.106654194389437 -0.21378297211696 0.0807862364065192 -0.973535014696497)
(-0.937503036579596 0.337834528455784 -0.0834019651272972 -0.336129684823979 -0.941197186125113 -0.0341275813719911 -0.0900271702552599 -0.00396083491542003 0.995931433584965)
(-0.912139798416375 0.333211280537776 0.238686469384651 0.225074214334543 -0.0794922935804309 0.971093493595241 0.342553041420774 0.939495193060453 -0.00248918253233742)
(-0.955792600262349 -0.253560688152369 -0.148887483380687 0.183244358363743 -0.909638799253293 0.372798551527346 -0.229960888873733 0.329035305577873 0.915889598844576)
(-0.669235015411547 0.360353565811916 -0.649822900299568 -0.272895174504159 -0.932615921255855 -0.236126591370893 -0.691124241999548 0.0193093507588735 0.722477979660156)
(0.603888440132551 0.626430423212704 -0.492852591296654 0.556630275789654 -0.77401650797111 -0.301763452827778 -0.570509849124981 -0.0921052129999231 -0.816109760871435)
(-0.0817661920267273 0.995006901126865 0.0572324781165592 -0.930317540343138 -0.0967978642430148 0.353750544321681 0.357524214524475 -0.0243195433325739 0.933587165636263)
(-0.606634326578065 0.0135656156309846 -0.794865251404117 0.119012747718137 0.990136420526597 -0.0739312831442644 0.786022111456005 -0.139448351798545 -0.602265221877299)
(-0.472390223955487 0.869960758676485 -0.141477046457435 -0.0029113351421484 0.158974912995341 0.987278330140905 0.881384706265644 0.46679251857882 -0.0725654474241482)
(-0.992870774012089 -0.0035655130766176 0.119142407349925 0.0634348803074615 -0.862051560315916 0.502835085606874 0.100914033082684 0.506808044996718 0.856131977824443)
(0.237347735947912 0.602347830606874 0.762130660191278 0.637127431639837 -0.688761577628396 0.345942372418973 0.733303953413879 0.403465711239549 -0.547248327326397)
(-0.160788272296722 0.8986861929775 0.408056684841019 0.737505299939444 0.384152808938535 -0.555439062315448 -0.655921538031087 0.211635880550159 -0.724553096750468)
(0.379709585754589 -0.924824869916936 -0.0227945271764973 0.886008551218951 0.370639243791024 -0.278595402203469 0.26610050291755 0.0855891987644427 0.960138016850644)
(-0.0439139709968729 -0.975037713915695 -0.217653439194836 -0.727045100484745 -0.118230177419623 0.676333532370273 -0.685183905978835 0.187944357694981 -0.703704436108092)
(-0.636701082868623 0.0981321457874369 0.764841037756916 0.579992609565497 0.714576083250692 0.391138842478609 -0.508153819156491 0.692640673949526 -0.511887285315252)
(-0.798844752091411 0.524413562072456 0.294681994649299 -0.58136536825254 -0.79886899595707 -0.154345832127505 0.154471261575089 -0.294616264338922 0.94304818865972)
(-0.423191131110076 -0.810897312346983 0.40417176469691 -0.81696683725888 0.534397236291372 0.216759730262257 -0.391758156735756 -0.238464132884976 -0.888628383498085)
(-0.157603361024721 0.925416874121486 0.344622677264466 0.839673455462975 0.309254449318959 -0.446441680141197 -0.519720760394058 0.21900980495778 -0.825787525061851)
(-0.121060683651398 0.085254944129509 0.988977201645887 -0.986120585702941 -0.124372464578312 -0.109989456347438 0.113624387024726 -0.988566176113765 0.0991282710283227)
(-0.221562297472381 -0.928663242866471 -0.297480637500141 -0.272475757881872 0.351869571965356 -0.895513688165411 0.93630503026816 -0.11735580800986 -0.330999251692346)
(0.545095851390425 0.531606655955802 0.648278394010195 -0.605108248329326 -0.285729727762344 0.743103310769553 0.58027107510263 -0.797341135284231 0.165929483163457)
(-0.224923084261712 0.63314690039217 0.74063122314009 0.836086977923362 -0.264924204298886 0.480389145717908 0.500368036062635 0.727282729411602 -0.469778309403948)
(0.353366169279764 0.934174791959634 -0.0494955399578473 0.400656699832554 -0.198941163002488 -0.894369399377295 -0.845344047880998 0.296209168883057 -0.44458246589556)
(0.353346449467569 -0.205756532626309 -0.91258453631993 -0.456133606443083 -0.889588698799502 0.0239599674756812 -0.816754810039029 0.407794306298908 -0.408185477483341)
(0.981907866480547 0.080192321920952 -0.171540471168021 0.0111558267474635 0.879827861412481 0.475161532336027 0.189030392458993 -0.468478522226225 0.863015286619844)
(-0.720864650551392 -0.284663836286115 0.631918235135126 0.355747120393734 0.630514160229316 0.689852071158655 -0.59480933240576 0.722093064681549 -0.353247029742392)
(-0.443592807094485 0.896126191399444 0.0135377465614393 0.896147715673929 0.443704982590194 -0.00672012775437742 -0.0120288480926018 0.00915082032180854 -0.999885778127183)
(-0.967379943016902 0.0108520801185838 0.253097369021716 0.139668055757595 0.85636953393339 0.497115736576102 -0.211350136147362 0.516249410370421 -0.829950399868983)
(0.100104429952779 -0.922991483519261 -0.371572098595606 -0.760683856948079 0.16972750291738 -0.626540217808901 0.641357289568321 0.345368348440248 -0.685114246686808)
(-0.81296615080767 -0.576458581193252 -0.0823501172411025 -0.193787902119845 0.134470170375034 0.971783938059947 -0.549119555864613 0.805985904000791 -0.221030395916666)
(0.70767840032468 -0.630336340031957 0.319166696491063 -0.64255216914243 -0.762027843660314 -0.0802513265732774 0.29379923697018 -0.148289122735046 -0.944294627981231)
(0.473285243486977 0.670075548795136 0.571838995875911 0.463056320911086 0.362984178319814 -0.808592190138997 -0.749386363608094 0.647488413175392 -0.138487663139539)
(0.0703633044763919 0.519682524402072 -0.851457033099294 0.0526705976951258 -0.854317529654753 -0.517075784255112 -0.996129917993432 -0.00846359000014678 -0.0874845936305853)
(0.792954875431895 0.458269547013723 -0.401511628484936 -0.0253293737677221 -0.633628766928311 -0.773222483212589 -0.608753635186948 0.623300575966961 -0.490831339307029)
(0.58987143386645 0.644375661627337 -0.486653571044813 -0.64151241890498 0.739977531537817 0.202225293200134 0.490421765319423 0.192907385865678 0.849866596931219)
(-0.420416364965374 0.270591823247378 0.866042807984087 -0.870847649663561 0.147605715373277 -0.468867704011051 -0.254704635106535 -0.95131099961096 0.17358839498781)
(-0.361127958184718 -0.931906041128075 0.0337302286730307 0.542788472971309 -0.239475937260807 -0.80500431618876 0.758265963515975 -0.272401185720725 0.592309313274013)
(0.552797185976924 -0.832614402930543 0.0341837272486502 0.765416499590343 0.523546254594011 0.374215047072467 -0.329473600354961 -0.180700236118269 0.926711698067927)
(-0.147910172205343 0.723865520538105 -0.673900058713667 -0.982980459968033 -0.0325292289601971 0.180807258107325 0.108958690700739 0.689173822369475 0.716357066190757)
(-0.0833059363300422 0.735470772941846 0.672415692202746 0.969055923076133 0.217121852689242 -0.117425376456093 -0.232359073253529 0.641826178363827 -0.730799848004668)
(0.898543683788138 0.438807521788871 -0.00819799645961508 0.436361306653506 -0.895222741233416 -0.090360686330802 -0.0469899816991591 0.0776157355182448 -0.995875363295967)
(-0.0753844433108963 -0.952567061709521 0.294844329524575 -0.391481246787624 0.300217533127432 0.869834390109109 -0.917093026426607 -0.0498540444594936 -0.395543872573849)
(-0.994626349196126 -0.0330597959271056 -0.0981095070726781 0.0306386000548786 0.811203029190272 -0.583961404220522 0.0988923741825573 -0.583829337500083 -0.805831001515052)
(-0.712393615251044 0.700087546691219 0.0487110245983146 0.70167153452444 0.7117864658312 0.031891765357954 -0.012344820276749 0.056898629398248 -0.998303636868531)
(0.332978744731983 0.327150866982047 -0.884362745591201 -0.596666146968989 0.799338782866382 0.0710423765570411 0.730147015756344 0.504013710566078 0.461362671814181)
(-0.362165176232174 -0.429184096171299 0.827428182211812 -0.93165557565352 0.194508908789917 -0.306894400006035 -0.0292279571374208 -0.882024543873344 -0.470296109410436)
(0.589814749507662 -0.807518495576621 -0.00569566193553916 -0.804822105857108 -0.587238020701899 -0.0860981124406675 0.0661811089884614 0.0553659312554857 -0.996270382210206)
(0.484470123467143 -0.775664203977087 -0.404516677204196 0.716601080533843 0.617103663732038 -0.32506300864021 0.501768463382725 -0.132393772047963 0.85481009486169)
(-0.86207546068355 -0.264659620199468 0.432181889397414 -0.395390360414937 -0.18219753259959 -0.900261363163814 0.317005304337628 -0.946973782398697 0.0524241592332495)
(0.295627533712152 0.721374484219973 -0.626277266733863 -0.117624543617005 0.678077688527012 0.725517136297108 0.948034191392991 -0.140817263992142 0.285309779207804)
(0.940385244227948 0.252567563363153 0.227783270621751 -0.188621117586523 0.944587404477058 -0.26865723385702 -0.283015311315048 0.20967656340205 0.935915633121465)
(-0.85076025172254 0.136405017784793 0.507543756943311 0.426066102199609 0.744410944290228 0.514120630375171 -0.307692493644926 0.653640587130314 -0.691432796597403)
(0.831660109037015 0.319482430296551 -0.454172257814533 0.257490250066929 0.502775125240611 0.825176311196437 0.491975847127693 -0.803211149182516 0.335874404609656)
(-0.966260985127003 -0.154316622968572 -0.206218545472925 0.0263226183878144 -0.85561931886824 0.516935877010542 -0.256216370247107 0.494066757690724 0.830813583520619)
(0.98723268017353 0.146890027639861 -0.0616032059015504 -0.129495949786819 0.965348213650652 0.226569250760786 0.0927493082788093 -0.215699203015345 0.972044967906499)
(0.0987701497636059 -0.925172552058508 -0.366469925687255 0.974098893875939 0.0146113400643307 0.22564984753196 -0.20341042860519 -0.379265418485619 0.902652723850973)
(0.277041839800442 -0.95620243957458 0.0944707020806349 0.959827321137984 0.27085148564692 -0.0732870133102588 0.0444896909077567 0.110979129905034 0.99282641993878)
(-0.496714760674256 0.504968009250223 0.705890753702145 0.649555967057484 0.755711005783812 -0.0835339535592262 -0.575631385687345 0.417023003407588 -0.703377794958429)
(0.296666498490994 0.954154978473379 -0.0397148048913518 -0.00419673326130479 -0.0402840082252944 -0.999179456409727 -0.954971924248575 0.296589743139862 -0.00794658173078172)
(0.731988970401472 -0.652912407641721 -0.194672892715148 -0.398964254303136 -0.642384735969953 0.654346525001208 -0.552285859857859 -0.401306913646282 -0.730707253324312)
(-0.381039281265158 0.463183626863473 0.800168728418282 -0.144891415569987 0.824850897267415 -0.546468182945051 -0.913135008543127 -0.324163423419021 -0.247189261680607)
(-0.599074727113323 0.705742255925466 -0.37820277568433 -0.798889761806318 -0.558527456512105 0.223208935312102 -0.0537086567989024 0.435861157392296 0.898409946328237)
(-0.458811758510359 0.220651121076148 0.860700210886735 -0.738310916301884 0.444271226950767 -0.507464351233791 -0.49435691673335 -0.868294972731905 -0.0409277315080673)
(-0.909508094369081 -0.413150153392997 0.0458473230239913 0.41270027017225 -0.910661921492018 -0.0193223120825928 0.0497344274811238 0.00134740335763197 0.998761568757687)
(-0.687955589867191 0.720434076175466 -0.0877031826998827 0.691389617194353 0.687323469656844 0.222636127559576 0.220675108714898 0.0925266985473971 -0.970948663138061)
(-0.345207073180602 -0.886944002439896 -0.306858946687203 0.884765972119703 -0.416616894238128 0.20885290999757 -0.31308345725247 -0.199400852483819 0.928556971232012)
(-0.836608623577052 -0.124162032919599 -0.533544562841553 0.535485500166712 0.0200050251227829 -0.844307454711281 0.115504502369894 -0.992060274656288 0.0497505917670715)
(0.0898210973057038 0.955199656358307 -0.282003168371867 -0.995693282859861 0.0795955911619107 -0.047533444387482 -0.0229577208483589 0.28505816662667 0.958235244964873)
(-0.65560116276137 -0.75360862526631 -0.0475516068094671 0.0132948264407214 0.0514435884350431 -0.998587404686659 0.754990306544296 -0.655307253990942 -0.0237073805174854)
(0.194032360548096 0.967713895450926 -0.160876535303719 0.282046185971579 -0.212100044430323 -0.935662075822003 -0.939575112505125 0.136174108052339 -0.314094285616805)
(-0.309976677774008 -0.0479992399611478 -0.949531743650175 0.794869671741619 0.534869831229956 -0.28652481321067 0.521628856737776 -0.843569995082323 -0.127644033214441)
(-0.86338914369889 -0.4199717113504 -0.279612138878687 -0.423664172704812 0.904425354078434 -0.0502339294346544 0.273985137022512 0.0750902161770454 -0.958797999646036)
(-0.360190941049304 -0.932877414671409 0.00148834875074627 0.910564323996334 -0.35192166027525 -0.216849618155555 0.202817893320868 -0.0767520307555377 0.976203886451896)
(0.362108988581639 -0.801822377762255 0.475350349645465 0.514114915950645 0.597177674195196 0.615682287092845 -0.777536451612041 0.0214406147882679 0.628472247956946)
(-0.0970313244110044 -0.225537044506889 -0.969390511423618 0.960816555092466 0.232864940789863 -0.150351145027834 0.25964681693272 -0.945995222454126 0.194104532535115)
(-0.0828994858163536 -0.914160215904075 -0.396785552798486 0.970366408272222 -0.164729328353935 0.176785978168319 -0.226972925584203 -0.37037190503368 0.90072634191161)
(-0.81132250165851 0.506859685787457 -0.291288614995535 -0.563078015937387 -0.811489726419416 0.156293224049402 -0.157158984059429 0.29082242492487 0.94378142114063)
(-0.534738128883568 -0.633718133840257 -0.558978049980607 0.785338321015333 -0.616886335499922 -0.0519131064211619 -0.311927643954359 -0.466746800648381 0.827555780006147)
(-0.944034885842677 0.238398184524648 0.227957101068065 -0.00115895221887411 -0.693495504352465 0.720460021286868 0.329843585873302 0.67987520256167 0.654960241388719)
(-0.788997714629153 0.605368639678357 -0.104935296273228 -0.602185169487761 -0.795836125301734 -0.063386775542839 -0.121883665677441 0.0131784581305313 0.992456900969675)
(-0.468235082124144 0.184640326759722 -0.864097134356005 -0.667620705473298 -0.714538704006698 0.209086188208985 -0.57882510440679 0.67479062694327 0.457841793961602)
(0.522086008721293 0.197976542658304 0.829597184213239 -0.465892410924437 0.880943020339417 0.0829678031424304 -0.714402170307793 -0.429819361444236 0.552163794165449)
(-0.0759247760139772 0.903846342083133 0.421066762271933 -0.704101240055987 0.250410354039418 -0.664481826945985 -0.706028945680592 -0.34692426333826 0.617386980238778)
(0.144138237535444 0.907793685575835 -0.393871543664706 0.97275279128987 -0.203025045640744 -0.111950158018381 -0.181593434677421 -0.367003345040909 -0.912322513813422)
(0.824849454084898 0.565059289068055 0.0182037889943291 0.543149244011715 -0.800979174391719 0.251835781651979 0.156883003621644 -0.19783923278426 -0.967598760409493)
(0.525934279667352 -0.0369879030934101 -0.849720559063705 0.61472978405856 0.706971222940603 0.349712714274423 0.587792842812925 -0.706274440255784 0.394557966564204)
(-0.801648778835955 0.0336643543805647 0.596846669283629 0.301386147783995 0.884998203908484 0.354886698824682 -0.51626119873059 0.464375807211031 -0.719603699519644)
(-0.275228893492225 -0.954168465699427 0.117522743551395 0.9593968501695 -0.280446871437449 -0.0301203616477051 0.0616987850114371 0.104460956178603 0.99261330263218)
(-0.603649675069762 -0.759120614743075 -0.243604109284443 -0.556488165567706 0.182397152573198 0.810587564866548 -0.570901034655973 0.624873724047735 -0.532545620227464)
(-0.920116486675831 0.344629376372789 0.18605441109586 -0.293589479097537 -0.921367274954747 0.254730371973387 0.2592120149811 0.179757997272348 0.948944779060443)
(-0.871829077662577 -0.0801593199795474 0.483206521854204 0.361419035818253 -0.771115823981282 0.52417236340146 0.330590895050401 0.631628743350146 0.701252301731474)
(0.86891740341985 -0.0299217447677226 -0.494051854792754 -0.0256187235734754 -0.999551929296833 0.015479717098355 -0.494293664774869 -0.000793617687878117 -0.869294623895946)
(0.904368965312485 0.424730841462664 -0.0414787522720076 -0.4241909191498 0.905317808137956 0.0214879123959151 0.0466780322043843 -0.00183809104876935 0.998908295456006)
(-0.357808494609485 -0.93373764544203 0.0103484621885791 -0.929016872823667 0.357075430095896 0.0970813433712462 -0.0943436865626346 0.0251226333453644 -0.995222649510935)
(0.357075335049395 -0.435026443354226 -0.826588893393769 -0.821728448718446 -0.567068262675385 -0.0565326634176839 -0.444139124223637 0.699418028827463 -0.559959694339662)
(0.0691498897374064 0.380314227586908 -0.922268605691573 -0.827989444691458 -0.493795085125366 -0.265706404487292 -0.556463630643401 0.78200223925575 0.280750290418652)
(0.689081503594226 0.571015173408196 0.446215590429031 -0.70453794293727 0.383692878554122 0.59699753928184 0.169684909069844 -0.725755776197792 0.66669752133145)
(0.549550224158234 0.696020577982719 0.462114602833796 0.54259103626662 0.123260633151801 -0.830904196449947 -0.635286957595346 0.707362828638612 -0.309916618092077)
(-0.698627985359217 -0.149749866386641 -0.699638417748843 -0.654363488474426 0.529193719164568 0.540150379568831 0.289356809189798 0.83518200717805 -0.467700386852035)
(-0.847002572494315 0.413678198208647 0.333851749306276 0.524482756247552 0.752663746687384 0.398013973148532 -0.0866284051970496 0.512218344799712 -0.854475211263416)
(0.571612233140145 0.816841593732415 0.077648346236254 0.183361223762166 -0.0349245680666133 -0.982425028267196 -0.799773790859001 0.57580386008957 -0.169740384590625)
(-0.195535722154677 0.937119545918108 0.289089498286754 -0.913403276125833 -0.281338595080262 0.294182001626305 0.357015737081777 -0.206532204695787 0.910979808722155)
(0.934949361954245 -0.340328347059799 0.100231266423678 0.291331383158532 0.897697370794054 0.330553256913889 -0.202473987880631 -0.279850043160597 0.938449912128893)
(-0.330111276450769 0.732493385540422 0.595382217822782 0.857935661639826 0.495871097362874 -0.134381007909499 -0.393666033138088 0.46643895092463 -0.79212483827592)
(-0.0261067553035059 0.174912294578727 0.984237840429196 -0.445811907929062 -0.883280510495115 0.145145728590744 0.894745874579018 -0.434995665478052 0.101037571918244)
(0.197937198136536 0.649187133799732 -0.734422855651121 -0.587887404441564 0.678158796308157 0.441009123135601 0.784352768397498 0.344465836185187 0.515881791119265)
(0.967684921225211 -0.0988158333466774 0.231994233362294 -0.115336164295271 -0.991588968589751 0.0587272217695274 0.224239743219196 -0.0835867719864496 -0.970942732147409)
(-0.491225344050675 0.286253657989804 -0.822652116419664 0.840348141615659 -0.0927252257791525 -0.534057144308841 -0.229156414366705 -0.953656581685284 -0.195003748586876)
(0.148549862048103 0.988892609370607 -0.00493412785423077 0.98848769329895 -0.148340417942008 0.0297859127996926 0.0287231384428975 -0.00930201789844184 -0.999544122978574)
(-0.783026725110683 0.613974714582305 0.0995198352893316 -0.34932168741996 -0.301713300315138 -0.887098327757988 -0.514629484639688 -0.729386135230526 0.450724260799178)
(0.522890320379332 -0.770602126405685 -0.364359816160668 -0.822281703582395 -0.568632617025417 0.0225775731304243 -0.224585201665726 0.287800815902007 -0.930984520579641)
(0.00475404691354299 0.779447243289374 0.626449833559351 -0.721874588368675 -0.43084283780945 0.541545499266549 0.692007570555048 -0.454792748443613 0.560614910841305)
(-0.598529455562387 0.479168394140164 -0.641996994448828 -0.661624932087871 -0.747517875112877 0.058902254850296 -0.451680130251391 0.460015952379768 0.764441223046103)
(-0.425509078366024 -0.551029289970886 0.717850085896963 0.712908817620314 0.284489846675382 0.640957521913756 -0.557407429074373 0.784494900386738 0.271780627123972)
(0.471701918496165 -0.868849691926131 -0.150324691674072 0.88015684450487 0.474221983898542 0.0209150438335722 0.0531152441231942 -0.142174972576746 0.988415422792732)
(0.990800520069651 -0.121479563260544 -0.0596409686351341 -0.125462145280591 -0.989743597408452 -0.0683144310564599 -0.050730459600731 0.0751686576905791 -0.995879557662319)
(0.706601868440113 -0.00753540575312134 0.707571209969059 0.555884703361888 0.624637320014842 -0.548470979189366 -0.437842432942728 0.780878630841446 0.445558714211697)
(0.819524619189429 -0.106900076679625 -0.562984699746194 -0.478979561599441 -0.6671048257944 -0.570569654794076 -0.314575870200543 0.737254043737783 -0.597911780181539)
(0.842830471126546 -0.498952300995166 -0.201701259966899 0.39204697747911 0.312467699431969 0.865253202398689 -0.368694947605875 -0.80833813354519 0.458970039835476)
(0.700298551281387 0.353950559132699 -0.619920108371103 0.608877378947003 -0.749480155417525 0.259899661488718 -0.372626188666093 -0.559462687160611 -0.740372355774586)
(0.556996633172842 -0.818407047810438 -0.141296336570775 0.664824335230416 0.337407933507824 0.666456667527166 -0.497758328829919 -0.465151362999382 0.732032004478126)
(-0.31507652469182 -0.899529325969214 -0.302611591498899 0.200315208678959 -0.374699496002087 0.90524809023145 -0.927685615259841 0.224604718154258 0.298248419648481)
(-0.436448060498719 -0.302553873734955 0.847333608429926 0.599121905058844 0.604872936048147 0.524577614958126 -0.671242157023505 0.73660700833244 -0.0827289665713603)
(-0.913992123419143 0.0140453992249068 -0.405488748411567 0.178121185819183 0.911833049619938 -0.369909898195725 0.364542509853287 -0.410320870029075 -0.835910008391124)
(0.578907924745882 0.743193775825164 -0.335452867391459 -0.799377021969441 0.598423164844511 -0.053722365219213 0.160816639107037 0.299253617107989 0.940523939745343)
(0.8655967120306 0.497595382070425 -0.0560461226491335 0.294834201134552 -0.596924472143076 -0.74615947919869 -0.404740813315342 0.629348878046905 -0.663403997378624)
(-0.98233722534483 0.140402101447103 -0.123696506058409 0.12210324458194 -0.0199398301533588 -0.992317086840702 -0.141789891615671 -0.989893758482542 0.00244408529388366)
(0.703436188835747 -0.662108707314145 0.258436816137004 -0.666453137989163 -0.488071786054783 0.563583309300135 -0.247017697950241 -0.568680922271959 -0.784591782740093)
(0.0240886246510139 -0.997417917383342 -0.0676552750722356 -0.997630639103451 -0.0196210034185366 -0.0659403074521945 0.0644425797471107 0.0690833866246225 -0.995527317359002)
(0.173805988799286 0.946719703765148 -0.271133326539421 -0.972967320767706 0.122568102503556 -0.195733627582974 -0.152072584562817 0.297823542977226 0.942430403941255)
(0.176509300307827 0.843244145198742 0.507724116516918 0.144830000921577 0.487958900420701 -0.860767321831676 -0.973585506125629 0.225467121967403 -0.0359977662340142)
(0.216828927118616 -0.454085363224343 -0.864171105320009 0.519639591037662 0.803082882146649 -0.291603463335475 0.826413886494414 -0.38582945365595 0.410092332165269)
(-0.226820716756823 0.967077090310389 -0.115387450993217 0.968326483451413 0.211227916882249 -0.133141235446449 -0.104384787668232 -0.141931915108536 -0.984357225592966)
(-0.141166092541739 -0.781952872627174 0.607142355059016 -0.565770368095472 -0.439542268275539 -0.697643522856988 0.812389084676556 -0.441986763816865 -0.380357300060197)
(-0.897441019412029 -0.413352394417954 0.154076003016833 -0.302681522612747 0.322908939552981 -0.896723877581945 0.320910443185522 -0.851392750019469 -0.414905860007735)
(-0.973266127803347 0.029101186257601 -0.227829246211014 -0.11431006458006 0.798990269917367 0.590379333744903 0.199214089879157 0.60063938393663 -0.774303607674564)
(0.243401393030914 0.969906024449525 0.00616973314877149 0.966176402854149 -0.243014380556685 0.0862969837854597 0.0851992983446892 -0.0150437554874971 -0.996250352563253)
(-0.565446255726734 -0.520179413214106 -0.640065551293651 -0.777816608782819 0.594452464058572 0.204028407522795 0.274357166821303 0.613220715601586 -0.740735107154283)
(-0.00910596014595742 0.182136858503852 -0.98323102385155 0.877868172815448 -0.469369478977116 -0.0950776701566506 -0.478815781535537 -0.86401299583924 -0.155618091407828)
(0.726575543717466 -0.687011030577724 -0.0101893638762514 -0.684853792256018 -0.722940199589285 -0.0912839035665953 0.0553467479100591 0.073302876357879 -0.995772778204667)
(0.488753172425183 0.793596049776919 0.362388805322116 0.855935278547775 -0.51656336338354 -0.0231752140707987 0.168805021790415 0.321508322424716 -0.931738838532548)
(0.790556308250323 -0.0292121865852981 0.611692219699193 0.164924030737241 -0.951800483766094 -0.25860375710343 0.589763331829813 0.305323577958752 -0.747634085078699)
(-0.282243665283558 -0.901254685162507 0.328752955697638 0.551155051483781 0.128152190459948 0.824502956516366 -0.785217563883548 0.413904588707286 0.460560928451208)
(-0.208124940501501 -0.0425290387630198 0.977177205016132 -0.457598309482893 0.887209465738563 -0.0588485434169043 -0.864458094010141 -0.459402486677844 -0.204111633511097)
(0.900282600782871 0.269003903575089 0.342239884567819 0.432654232902561 -0.466307628639519 -0.771600615748902 -0.047974508638715 0.842730143838437 -0.536194322225554)
(0.58670979062922 0.341557795763649 -0.734241032449763 -0.314957063153867 0.931556178827755 0.181673151723978 0.746038651779723 0.124664982416515 0.654129170890416)
(0.684065010414445 -0.676919999862243 -0.271724815416603 0.723168395733926 0.678058395925667 0.13139361904724 0.095302323887222 -0.286384576227864 0.953363174011081)
(-0.0840050289443221 0.807840582779674 0.583383876985181 -0.951338506694055 0.109169517338173 -0.288161520965719 -0.296476307304968 -0.579202563269835 0.759359065204639)
(0.603221975709761 -0.779823961796558 0.167325540873871 0.786659531407235 0.616314540899927 0.0363753807053809 -0.13149155739804 0.109685802560007 0.985230427387322)
(-0.942275726674597 -0.042269280455366 -0.332159243209708 -0.0699117052081061 -0.945300133389431 0.318622050851505 -0.327458101739376 0.323451643594077 0.887778252640565)