/*--------------------------------*- C++ -*----------------------------------*\
| =========                 |                                                 |
| \\      /  F ield         | OpenFOAM: The Open Source CFD Toolbox           |
|  \\    /   O peration     | Version:  2.4.0-MNF                             |
|   \\  /    A nd           | Web:      www.OpenFOAM.org                      |
|    \\/     M anipulation  |                                                 |
\*---------------------------------------------------------------------------*/
FoamFile
{
    version     2.0;
    format      ascii;
    class       tensorField;
    location    "0/lagrangian/polyMoleculeCloud";
    object      Q;
}
// * * * * * * * * * * * * * * * * * * * * * * * * * * * * * * * * * * * * * //


4298
(
(-0.340511533455391 0.832201890246461 0.43759788556856 -0.614420430695504 0.155346490537557 -0.773534098939158 -0.711715835096992 -0.532266363532284 0.458424572120987)
(-0.0398384720927974 -0.515397544369787 -0.856024688545199 -0.999181212168743 0.0144978736369011 0.037771906345996 -0.00705701001229601 0.856828560983819 -0.515553116266485)
(0.57136832634294 0.783120104793971 0.245481439460395 0.430881720311239 -0.540819730740284 0.722395294796163 0.69848348495415 -0.306980325606524 -0.646439402370259)
(0.671582480774413 0.501543009912885 -0.545372882278179 -0.668626845868512 0.727384874694751 -0.15443246112533 0.319241464256775 0.468365085454526 0.823844059410739)
(-0.956023514148688 -0.0650747757434794 -0.285979569124665 -0.254059369039416 0.670923293559432 0.696646087452343 0.146536266494294 0.7386658295341 -0.65795130129867)
(0.619061024205138 0.151214405556094 0.770647553595288 0.517410963309253 -0.816742582119046 -0.255377073365844 0.590803980485471 0.556835485674027 -0.583853490643581)
(0.669224674834002 0.415880349769592 0.615777451088334 -0.118141850062951 0.877715283272094 -0.464390336650421 -0.733608095550361 0.238032384742306 0.636521598971208)
(-0.774710739486271 -0.387958704783831 -0.499310838563602 0.536282226517238 0.0152220882461484 -0.843901452511571 0.334999468128456 -0.921551046557855 0.196262642756518)
(-0.57914150793505 0.571699294358381 -0.581166955888621 0.809908815363835 0.484785114483636 -0.330198582024571 0.0929667929029862 -0.661923945484084 -0.743783480464655)
(-0.297039096921334 -0.648024065894335 -0.701307767618421 0.947443213186801 -0.108623868979287 -0.300918947350014 0.11882395670246 -0.753833977152626 0.646231539159012)
(0.919476596520138 -0.393095935786001 -0.00619465255464097 0.0656837082413824 0.169135465711311 -0.983401670077024 0.387618935197192 0.903807932863585 0.181336101120125)
(-0.449222175930388 -0.506802533202057 0.735765335546834 -0.147977027497563 0.854370073001308 0.498151159481462 -0.881080152985727 0.114904180514541 -0.458797115634928)
(-0.200615945778637 0.0133453713896908 -0.979579064375007 -0.448576705458306 0.887677333732559 0.103961004697083 0.870937530262369 0.460272584714673 -0.172095805121911)
(-0.982821860057709 0.181975221590648 0.0307605285998099 -0.161345170184989 -0.92811591645389 0.335512416585337 0.089604282546549 0.324785874618941 0.941533434455372)
(0.268298615521733 0.542068881589843 -0.796352422311289 0.959191575229695 -0.226918367086908 0.168699664157898 -0.0892601530219275 -0.809116420727294 -0.580829788141031)
(0.296743451631888 -0.187531539394601 0.936362774594273 0.780871108158065 -0.516781729955078 -0.350965747657278 0.549712321453312 0.835325424799777 -0.0069136333055181)
(-0.700067011964522 0.366996850102123 0.612551622946332 -0.581254614273716 -0.791158308183648 -0.190293470138891 0.414788201549393 -0.489266638354903 0.767182445346811)
(-0.369872324566882 -0.258275235867505 0.892461968969589 0.910428006910438 0.090768651115487 0.403586293384405 -0.185243914211991 0.961797772149769 0.201568196239291)
(-0.936993653762903 -0.178636524865832 0.300219727519534 0.278962245619807 0.134714216910046 0.950806050296835 -0.210292554140175 0.974649204455722 -0.076393520190061)
(0.947388514239125 0.259449521191864 -0.187459193002362 -0.308824202985989 0.894881387457898 -0.322203218530629 0.0841582719514424 0.363143564358148 0.927924639681158)
(0.860118463498237 -0.437914133742567 -0.261586391499881 0.22731897225426 -0.130016988687056 0.965101894882617 -0.456642435175159 -0.889565508617126 -0.0122838217202028)
(0.58666183873288 -0.71764920434949 0.375243263058913 0.790559592163654 0.607995908198642 -0.0731881605981895 -0.175622943297832 0.339588861876024 0.924032459752986)
(0.446173196359759 -0.626739584502516 -0.638848160416644 -0.890494780827108 -0.382017606948966 -0.247146906314172 -0.089154496071689 0.67916127775264 -0.728554345695367)
(0.459576422969928 0.82759838131257 0.322289358649926 -0.879112520631115 0.475500311164288 0.0325673172409552 -0.126296031290671 -0.298295781618647 0.946080831191895)
(0.874620544819134 -0.427790081584332 -0.22811082542999 -0.484017413104137 -0.743636475768822 -0.461228723864967 0.0276775431037564 0.513809729378685 -0.857457588224364)
(0.98502084214928 0.150427114041625 -0.0842948627890861 -0.0202521138743047 0.586388709138393 0.809776594919013 0.171241911970011 -0.79593967431968 0.580651567145683)
(0.60064150359691 -0.673205272427294 0.431305512755096 -0.635913115724358 -0.72923462356988 -0.252648714694208 0.484607360041696 -0.122521528569429 -0.866108643087245)
(-0.721767270623894 0.684823943371818 0.100340289220274 -0.688653411519726 -0.696024853304629 -0.203238486474667 -0.0693432466674155 -0.215790570152969 0.973974303549472)
(0.607358647103383 0.510892850923831 -0.60836170874215 -0.791006342654826 0.317911932998464 -0.522724562974628 -0.0736507954375558 0.798699253619346 0.597206047021725)
(0.485222093426833 0.705293732296179 -0.516836793614975 0.779152257031023 -0.617016363680364 -0.110510485086817 -0.396839111497273 -0.349072425342344 -0.848921175052)
(-0.926686739979412 -0.374097854579971 0.0360899036434326 -0.375576168760254 0.918209168241088 -0.125835069902543 0.0139365492751246 -0.130164198444396 -0.991394499701118)
(0.833952919840416 0.161736146520659 -0.527602072018574 0.117718567796149 -0.986218793257014 -0.116253303706612 -0.539133440147861 0.0348412217829162 -0.841499389767459)
(0.84715738310738 0.516218909857767 0.125866617305443 -0.404092590173949 0.779751226392796 -0.478222964217988 -0.345012386463392 0.354268347505376 0.869172244806888)
(-0.650045282166367 -0.611548196053495 -0.45105424844132 -0.757378225990982 0.473135749332054 0.450023094405997 -0.0618009217407085 0.634154055894711 -0.770732949512532)
(0.748184700687449 0.314736825695577 -0.584089363204213 0.53502258505979 -0.806822349253969 0.250576395975852 -0.392390732731 -0.499978426829977 -0.772043447981685)
(-0.176984132626667 -0.983761546810563 -0.02983011591118 -0.393964314074054 0.0430367273483201 0.918117617375523 -0.901925016858135 0.174244251314166 -0.395183760862486)
(-0.851097148551241 -0.42680359672888 0.305732454193594 0.46942520360184 -0.879421218761005 0.0791094066232322 0.235103428199841 0.210848309958132 0.948825256955401)
(0.400921549239112 -0.6873205230085 -0.60568342391635 0.860192610656513 0.0549820014086941 0.506996698305843 -0.315167548976163 -0.724270307393874 0.613271504229522)
(-0.280952085101768 0.867469123829924 0.410564544351693 -0.94478568215794 -0.174813839715066 -0.277164457016824 -0.168659244236195 -0.465765435220154 0.868686720681199)
(0.0524929218006938 -0.56448035893073 -0.823775708273958 -0.998264287851573 -0.0517173386662169 -0.0281731872793358 -0.0267002764221448 0.823824763686258 -0.56621537772853)
(-0.380759631679217 -0.277362536718199 0.882095304436404 -0.881024022732687 0.39845640737172 -0.255008162207281 -0.280746815211536 -0.874243967465414 -0.396079172765891)
(-0.480711837018293 0.643426452324735 0.595750392529709 -0.854962431952053 -0.494861659196821 -0.155406493453782 0.194821378963215 -0.584049945386329 0.787991301724262)
(-0.105987009216009 -0.993208980212664 0.0479862011662269 -0.994333273018137 0.105459396221453 -0.0134036531455538 0.00825203286986828 -0.0491348895747871 -0.998758062085102)
(0.264328698804228 0.930794268744144 0.252492313272142 0.600197369050644 -0.363690579597941 0.712384924388774 0.754912880518771 -0.0367585579799825 -0.654794128900133)
(-0.779218617240963 0.271107949585364 -0.565083025949905 -0.577420715746396 -0.661141276388002 0.47903812967546 -0.243728667932193 0.699566074311542 0.671716937482103)
(0.553959008156901 -0.654177926689318 0.514956947243445 -0.830623976190566 -0.476256629285606 0.288519381045514 0.0565086494193293 -0.587563497244321 -0.807202520589985)
(0.16485508088084 0.819692235931062 -0.548568537798248 -0.947080137189323 -0.023758916875497 -0.320116740596859 -0.275430601148864 0.572311237198117 0.772397457095462)
(-0.415227200298305 -0.241857098322272 0.876978629228536 -0.587866827175589 0.807032819731539 -0.0557729448986495 -0.69426145337253 -0.538705088028035 -0.477281743306582)
(0.590756908958926 -0.449497967187108 -0.670043171752353 -0.529093859344162 -0.842781040686879 0.0988928989515497 -0.609151838642547 0.29609406436705 -0.73570533675175)
(0.861482015906413 0.493468259740238 0.119740606724551 0.501999656503787 -0.863148080786479 -0.0545136267798902 0.0764531303473032 0.107072252537989 -0.991307445546809)
(0.851340256082601 -0.449147826073148 0.271083010730987 -0.428837508816146 -0.298160191387258 0.852759574149875 -0.302188946531094 -0.842239117237901 -0.446447208512662)
(-0.581400945538198 -0.577973027290364 -0.572643100239671 0.729457065918484 -0.0585522242341782 -0.681515976348923 0.360368324785747 -0.813952588767947 0.455648827200369)
(0.122171685103585 0.891669386986616 0.43588964620631 0.781507891726583 0.18430042327755 -0.596052656355784 -0.611816553002631 0.413471955869594 -0.674330369463923)
(-0.839688413613272 0.258785498178351 -0.477444692059939 -0.455573783269546 -0.814196808639084 0.359911217940485 -0.295594140742167 0.519724564297776 0.801567515075547)
(0.572866312668789 -0.586096525531413 -0.572987827592586 -0.504728275704681 0.298556651353068 -0.810008205907213 0.645812322206263 0.753229572370103 -0.124786440744601)
(-0.579036061292153 -0.797371060814243 0.170048907962499 0.812472173526494 -0.581698197475241 0.0389380828905381 0.0678690427839173 0.160706560009302 0.984666032013683)
(0.319340641055657 0.492019677087423 -0.809900112562623 -0.406020768782957 -0.701190756937656 -0.586070522805996 -0.856252702353142 0.515992402796771 -0.024148498275395)
(0.577401356061241 -0.0180670876032864 -0.816260530936156 0.0389615919944957 -0.99800643597811 0.0496502577588878 -0.815530298865649 -0.0604709359263169 -0.575546346995879)
(-0.369911778770057 -0.929066824344772 0.000334408571694817 0.860454310205893 -0.342457625233954 0.377281267713124 -0.350404988513681 0.139848528133268 0.926098662780422)
(0.55658304849736 -0.683528775057509 -0.472232700894132 -0.366760052271793 -0.71218120100905 0.5985691279935 -0.745454474923169 -0.159957339930647 -0.647079033209494)
(0.451481990559094 0.717749859751779 -0.530093530452033 -0.682986850160966 0.660286718719586 0.312330612636232 0.574188971252497 0.221035263948593 0.788321278022593)
(0.994810998124989 0.0223388895554096 0.0992575036105326 0.100230894933598 -0.047764030070066 -0.993817068243586 -0.0174598313386413 0.99860881802881 -0.0497552293204358)
(-0.848647398744563 -0.328144711854596 0.4148718364579 0.219232516937103 0.495582398648927 0.840437498965152 -0.481388300773408 0.804188494217146 -0.34863472237752)
(-0.978059317148489 -0.199256330738033 0.0608020295701331 -0.180200223819497 0.955628622196019 0.233027500040534 -0.104536364363962 0.216958178229247 -0.970567513069035)
(0.36497052238501 0.474277384914663 0.801160083846245 -0.847825649987145 -0.186253441256791 0.496488995692632 0.384692325129951 -0.860447916947047 0.33412751638798)
(-0.643817387499896 0.140337106723773 -0.752199885688112 -0.730025822057437 -0.407191732474208 0.548869011817953 -0.229262885531376 0.902496753169258 0.364606829114286)
(0.709421110431856 -0.47834992200972 -0.517593508640639 0.174926758884638 0.830926195263292 -0.528168805450856 0.682731511723129 0.284153145572178 0.673152785600482)
(0.783409791482222 0.615746468190017 0.0844119986808834 -0.509238326174645 0.55808714034724 0.655145076249441 0.356294015897864 -0.556232892492489 0.750772631057374)
(0.138149922574587 -0.88048043197462 0.453507230154518 -0.865689922738168 0.115096001087844 0.487169239795753 -0.481139851355322 -0.459899031792169 -0.746322533489647)
(0.886844993711794 0.455776552148744 -0.0759848119016555 0.137253074564779 -0.102820343853479 0.985185043741716 0.441211457977739 -0.884135572975805 -0.153742440295133)
(-0.209754459485004 0.733023653440614 0.647054395103479 -0.300757251259921 -0.678061575311419 0.670654587623744 0.930348398472707 -0.0539335107588163 0.362688618344301)
(0.71883665804118 -0.694313933978103 -0.0346701620999794 0.625912070313249 0.624705492980397 0.466880206558707 -0.302502792205907 -0.357311080326331 0.883640680697567)
(0.644290274328366 0.456095984778579 -0.61389453090473 -0.755291912543369 0.50552727184961 -0.417104668234331 0.120100662997584 0.732406055467286 0.670191913307219)
(-0.497156811156221 -0.867660659007188 -0.00029314192705411 -0.867660695418826 0.49715683399811 -5.85625872504352e-06 0.000150818757671014 0.000251436249371135 -0.999999957016756)
(-0.913773855829113 -0.0229437627121005 -0.405574807101977 -0.0743882613449041 0.990971962325886 0.111539035579773 0.39935413729831 0.132091459362801 -0.90723101764993)
(0.981485859187641 -0.190983455891452 0.0145199101393639 0.189436349504237 0.956749902842901 -0.220779285478977 0.0282732683148965 0.219442345471098 0.975215709119237)
(-0.0292121547007712 0.976839428180475 -0.211970237462197 0.951486511278184 -0.0378076542550951 -0.305358805563875 -0.30630061846723 -0.210607010405089 -0.928345096553444)
(0.0779332694184546 -0.987459197211418 -0.137297994742577 0.86046890514634 -0.00293016913678354 0.509494531261218 -0.503507367169547 -0.157847229786943 0.849449576640414)
(0.114128644618847 0.206593049834049 0.971747891295747 0.93510695032973 -0.352647538549184 -0.0348526182694249 0.335484193252823 0.912665889203419 -0.233433782392426)
(0.281885023469363 0.776534955407391 0.563501815945714 -0.956324088482757 0.274759702475063 0.0997564217654162 -0.0773632427661935 -0.567010201783227 0.82006972858559)
(0.580472503807346 0.0242796979688865 -0.813917789822885 0.779020193972436 -0.307510454890868 0.546410887076712 -0.237021538487071 -0.951234890234453 -0.197415738718752)
(0.184353128168234 0.896748468210605 -0.402313446079696 0.825104682763077 0.0812131951456124 0.559112403204116 0.534056351537015 -0.435024828827246 -0.724939453807556)
(0.423126929035513 0.270219607283294 0.864838115351444 -0.0394532292322607 -0.948093246747195 0.315535478473514 0.905211049771335 -0.167632214422006 -0.39050274782625)
(0.267302997950136 0.946344563118105 0.181606924823018 -0.129930937041965 -0.151347030673965 0.979904091177076 0.954812577884407 -0.2855276591908 0.0825039208205028)
(0.745114922571155 0.0441296989421128 -0.665474508777805 -0.0912218929537059 0.995174383707112 -0.0361457087233505 0.660668084901734 0.0876385513598277 0.745544878533698)
(-0.693237108519752 -0.713560172923725 0.101262979356911 0.402490569855683 -0.266755132611437 0.875695746479736 -0.597849188799669 0.647822181499305 0.472125797440745)
(0.48521531819008 0.427445016962109 0.762795419800068 0.479934511221273 -0.859408173199237 0.176296502452964 0.730909679736489 0.280550083430058 -0.622143625503702)
(0.418395245363134 0.82748041806081 -0.374461715510986 0.866498078141317 -0.240066823947241 0.437663113155872 0.272261821111458 -0.507586522443014 -0.817453009658219)
(-0.692707454383563 0.26046558980718 0.672542979420529 -0.678369328919128 0.0813288523611821 -0.730205910244107 -0.244890661772262 -0.962051606879803 0.12035476507697)
(0.823525015620877 -0.143230164137844 0.548900417860727 -0.545532188873906 0.0653916103358808 0.835534899450721 -0.155567283029174 -0.987526737551306 -0.024285038031556)
(0.569363696876382 0.699471382850221 -0.431931435823857 -0.400650017782232 0.69488563530217 0.597171262789659 0.717847159171335 -0.166954300406724 0.675885876199041)
(-0.646240632968209 -0.270290917583643 0.713663691224824 -0.696593952220694 0.59084846797084 -0.407007313971217 -0.311656718250068 -0.760158475430159 -0.57011330645872)
(0.539144986602295 0.751523027085077 -0.380178672708627 -0.751949238590986 0.632842817091945 0.18461395244555 0.379334978619224 0.186341376553931 0.906301200142612)
(0.647962766923423 -0.452689005384126 0.612549522149248 -0.563807606156143 0.255658231256848 0.785340596194479 -0.512118380768959 -0.854231545422522 -0.0895724895468936)
(-0.273220849497936 -0.876720104037282 0.395868951266051 -0.382926852868376 -0.278390558695004 -0.880832403004002 0.882449654514039 -0.392250629070675 -0.259657565346577)
(-0.926453140147374 -0.346797596906294 -0.14634208516722 -0.376334172025212 0.845586368985194 0.378624198318772 -0.00756108968125082 0.405851104922057 -0.913907933304213)
(-0.355457040844406 -0.530358277008011 0.769656020650285 -0.531209170517764 -0.562897134164872 -0.63321689294175 0.769068988629738 -0.633929739291404 -0.0816454307966141)
(0.411451988194812 0.204024272553787 0.888302514698362 0.83814280075365 -0.467608181497768 -0.28081886357789 0.358083659157135 0.860067837327526 -0.363399791193374)
(0.985879352596077 -0.0940986420875696 -0.13851840196167 0.0142123272821745 0.871220584241097 -0.490685951854978 0.166852964846189 0.481788479679493 0.860255746258146)
(0.29420302084639 0.694967208760958 -0.656098438705551 -0.93659536334553 0.346366928905976 -0.0530949707589834 0.190351537646832 0.630119456378904 0.752805262208123)
(-0.0693027860206868 -0.990734264401288 0.116802145489756 0.622321522757948 -0.13444392088862 -0.771129531562839 0.779687787618865 0.0192470641224486 0.625872594351811)
(0.000506188119621581 -0.231831605308309 -0.972755802117756 -0.380343746090459 -0.899693258814683 0.214221088722124 -0.924845056527559 0.369873149638613 -0.0886311152640427)
(-0.293172490021125 -0.56353095366146 0.772322960528961 0.693572448954592 -0.681363424895851 -0.233882751106888 0.658032787287946 0.467093938602935 0.590606555478734)
(0.949550604820503 0.0480948804320547 0.309904067997249 -0.0320398827372934 0.997877437802251 -0.056692724748374 -0.31197290715573 0.0439033210752988 0.949076078931168)
(-0.627095133407052 -0.762441154101167 -0.159484106387038 0.778789647496368 -0.617748101267382 -0.10896773987299 -0.0154395145543592 -0.192537710367152 0.981168105615394)
(0.0793863383749529 -0.611834423161844 -0.786992025317684 0.845846729001426 0.459104240100056 -0.27160008792292 0.527485658873306 -0.644113293882655 0.553964750075879)
(0.0107723980037029 -0.939234326740351 -0.343107614188099 -0.305137900485134 0.323673515096778 -0.895615049735332 0.952247245797421 0.114343058807675 -0.283109250597239)
(0.962541921918033 0.021403094984398 -0.270286803368991 0.0429869901774366 0.97222377785052 0.230071824562563 0.267703506188887 -0.233072592355151 0.93488608903279)
(0.998328250434193 0.0491370084705943 -0.030434499890143 0.0461517943411246 -0.994685138887211 -0.0920406777247137 -0.0347953483111882 0.090482201981886 -0.995290035547635)
(-0.880907828961832 -0.469254692024477 0.0616557449615537 -0.456246604557362 0.876595587225738 0.153033369845411 -0.12585878079669 0.106678069299071 -0.986295775529325)
(0.99361442436454 -0.0220995457267561 -0.110643507597123 0.0788630061805499 -0.565278157406502 0.82112193431626 -0.0806907798381587 -0.824604277722218 -0.559925694366073)
(0.963864787827106 0.266366963488315 -0.00364849955762661 -0.265457066670537 0.959245664682361 -0.0968519516724892 -0.0222983528916691 0.0943207058397613 0.995292111848681)
(-0.953593618997902 -0.0677998255418863 -0.29336392665591 -0.238260317277208 0.765629877776188 0.597530678264626 0.18409571156724 0.63969842419136 -0.746253773906465)
(0.333717420132603 -0.939883368961866 0.0724702438862554 0.940778688734088 0.327189668871786 -0.0887827652607297 0.0597339294188037 0.0978068163906001 0.993411135604854)
(0.350168355375619 0.898484248206727 -0.264779490553794 -0.17629681529798 0.34084305265545 0.923442172727835 0.919946496166665 -0.276680445967739 0.27775236274381)
(-0.0851835966660372 -0.857888640618381 -0.506725601442225 0.974334409330591 -0.178078804642171 0.137696761514653 -0.208365576939776 -0.481990684178815 0.851039814997743)
(0.758803660149302 0.588593221471157 0.278881740137694 0.63481291932947 -0.764133652313348 -0.114509033943433 0.145703681478603 0.26392760568093 -0.953473993438265)
(-0.122576410321704 -0.979821553082873 0.157875735142904 -0.963420600626244 0.155673431520523 0.218143368011941 -0.23831863108371 -0.125361504589296 -0.963062159595887)
(-0.932927399544714 -0.359963719628456 0.00851984330749174 -0.360023242791534 0.932917573223352 -0.0069329806663496 -0.00545269003389703 -0.00953530923979024 -0.999939671204766)
(0.461463420610953 -0.886947401415347 -0.0193860403538646 -0.887142515973951 -0.461478698931126 -0.00394547642803245 -0.00544681461473883 0.0190188736627197 -0.999804288176018)
(-0.480682094842126 -0.876810723530737 0.0121523166388562 0.723854787962569 -0.404575106517751 -0.558885703100209 0.494953502504882 -0.25984983795965 0.829155650086577)
(-0.143348529129117 0.472524365570711 0.86958146434852 0.331978388024434 0.850705730733673 -0.407541543381268 -0.932331244291007 0.230261771987633 -0.278815292406815)
(-0.134579326946984 -0.868421250847184 -0.477213721340354 0.685162700167895 0.266361399451586 -0.677940763769839 0.715849480727014 -0.418205853568796 0.559163111250786)
(0.164309804899449 0.524218568220381 -0.835581941371927 0.952729983900321 0.135121629897324 0.272117112492368 0.255554036929958 -0.840795479214098 -0.477236939414728)
(0.373341291407224 -0.893253965538053 0.250426901871442 -0.528405857022039 0.0171188283502549 0.848819295245295 -0.762498216650498 -0.449226333563001 -0.465609461714808)
(-0.895864209929031 -0.289012007471966 0.337489817483814 0.202049026642124 0.411502130651745 0.888730660719008 -0.395731611324145 0.864371480328972 -0.310255436362842)
(-0.713301995099693 -0.494833371470743 -0.496326705170793 0.677512089292611 -0.305591809996292 -0.66902243200475 0.179381249435828 -0.813482378507419 0.553234839113331)
(0.255580729723057 0.224017460969677 -0.940475766713278 -0.109165611327385 0.973249800713237 0.202157598707453 0.960604684507497 0.0510000254151345 0.273198897343873)
(-0.673580913909039 0.670138654729071 0.311773853707098 -0.655313804227716 -0.736569552661691 0.167418971685876 0.341837052418345 -0.0915394861776496 0.935290303629985)
(0.13356368286087 -0.958716955890813 -0.251042906906556 0.97389016554813 0.0800499869586334 0.212438096951934 -0.183572024201068 -0.272862232775764 0.944376785957463)
(-0.60619832276837 -0.717924102480993 -0.342211303947831 -0.708397312820486 0.68300046804498 -0.177998898420894 0.361520180158078 0.134518934456075 -0.922609243185474)
(-0.487573579194756 0.251448806428921 -0.836089410659342 -0.577938802076189 0.624834852791641 0.524945852247246 0.654414811817363 0.739158240488678 -0.159330943610231)
(-0.892438422557318 0.33382479652765 -0.30350398212656 0.209148877815481 0.902164440187966 0.377301033352494 0.399762940818595 0.273240421760046 -0.874945291469393)
(-0.779330595899562 0.566735510468102 0.267310088603655 0.298257325935233 -0.0396694581466012 0.95366078959781 0.551077480778155 0.822944223665745 -0.138117395408352)
(-0.775500559238757 -0.607286046529693 0.172634122671939 -0.294617866590864 0.589935468645849 0.751782186220883 -0.558389823784265 0.532146408917638 -0.636412605288613)
(-0.0919104089035019 0.793871633088615 -0.601099248803729 0.956905280944923 -0.0965811580080849 -0.273869244745619 -0.275471886106204 -0.600366479822977 -0.750783144369969)
(0.727342268267692 -0.686220184115609 -0.00866508531691727 0.561963475870827 0.588297079341035 0.581466764506783 -0.393916585812769 -0.427794816882051 0.813524011981493)
(-0.551036070170139 -0.639996866632291 0.535502810517647 0.201653713947401 0.520576006429557 0.829660413169794 -0.809749979328601 0.565158944218972 -0.157798411736707)
(0.260293036820464 0.699210583456646 0.665846900544711 -0.492647725749059 -0.496917564718831 0.714402654102143 0.830388916891995 -0.513981997599258 0.215120321789495)
(-0.64713180291435 0.511981046614338 -0.564885685395292 -0.108935495563344 0.671251327184018 0.733181228319481 0.754555158661838 0.536000992220519 -0.378615172537272)
(-0.545590230245929 -0.8377223270909 -0.0235075169595132 0.831787994621232 -0.544722284765859 0.106800582786105 -0.102274301093599 0.0387160841623924 0.994002531265865)
(-0.683289104414333 0.707676370281993 -0.179750256559379 0.602105783277764 0.406865526752882 -0.686970937437363 -0.413018916675894 -0.577628425620314 -0.704102816627847)
(0.524790009004291 -0.851224871822757 -0.00341526567160588 0.851215092884568 0.524800611833712 -0.00414529425712341 0.00532091108672092 -0.00073171667536024 0.999985576143933)
(-0.982977020798543 0.0414933193474571 -0.178981789664621 -0.00604761397854836 0.966329222916766 0.257237748595042 0.183628981773541 0.25394120852396 -0.949628485075192)
(-0.534023893564898 0.838562507179326 -0.107848980778253 -0.844926096809417 -0.524748701784517 0.103627655120956 0.030304653639172 0.146464062242537 0.98875169099184)
(-0.99480889131875 -0.0973344504047675 -0.0296862681649576 0.0983778404131569 -0.994498383316118 -0.0359828583810466 -0.0260205739522274 -0.0387165384045229 0.998911387153619)
(0.0579402387783169 -0.972384924221181 -0.226076287738629 0.636948523690768 -0.138369396755678 0.758386766900386 -0.768725898417936 -0.187940068077133 0.611341986054205)
(0.293164569779121 0.610830415947921 0.735486735420233 -0.328607087289771 -0.658041864230436 0.677494123297808 0.89781507962896 -0.440303427051191 0.00780864378887902)
(-0.766632479590187 -0.0419369524155038 0.640715173270854 0.430475079243061 0.706817211104896 0.561338254741806 -0.476409327562005 0.706152053107542 -0.523816218252091)
(-0.396582917547931 0.294307864565204 0.86954290886893 0.831901770834614 0.515723677409246 0.204862227464503 -0.388151301931869 0.804619145567984 -0.449362434337854)
(-0.371728716957984 0.869292393611359 0.325804382104055 -0.910287711080495 -0.410191465951706 0.0558501953105317 0.182192327073906 -0.275814603800858 0.943786130585511)
(-0.212402458148554 -0.968838737321417 -0.127423297861475 -0.966886382166315 0.2272493413017 -0.116139833215302 0.141477629870544 0.0985354654090894 -0.985025300336406)
(0.644071985334549 0.461389358095479 0.610156650331253 0.589204417119967 -0.807908726590704 -0.0110292495169376 0.487862104035077 0.366610624143422 -0.792204025306384)
(0.85119373204273 -0.504195750630142 -0.145793949043427 0.414993013075502 0.816603483596026 -0.401172718012269 0.321325426366614 0.280972232836881 0.904325480535062)
(0.908518680026772 -0.405426605785544 -0.101109224918526 0.404458189446186 0.914036762587763 -0.0308280655895553 0.104916066607195 -0.0128865805896526 0.994397583971512)
(0.96265317767523 0.0793425011921498 0.258850588209406 -0.116416762220291 -0.741880607453951 0.660348621379572 0.24442994289965 -0.665821246122659 -0.704936927125926)
(0.0962391585892227 0.891378492550104 0.442924832644482 0.606978326259368 0.300119713316068 -0.735870551884269 -0.788869657044442 0.339665336321187 -0.512164156786083)
(-0.798967981685855 0.462172923418626 -0.384767921089469 -0.0939826497395896 -0.727914202949088 -0.679196712810743 -0.593984364936281 -0.506494918043285 0.625016377551476)
(0.0190675338235255 0.365302288240165 0.930693648501153 -0.900203018529693 -0.398775591326593 0.174964434077775 0.435052818154208 -0.841149371971843 0.321242555473984)
(0.821427603379537 -0.420201290774377 0.38560026923966 -0.00889719661225896 0.666596606036392 0.745365551064179 -0.570243397417799 -0.615694599661481 0.543822239016662)
(-0.440048729373049 0.491336573987246 0.751628556429065 0.574344255250454 -0.48942787057348 0.656192834437187 0.690279502982644 0.720450366485009 -0.0668242260983976)
(0.24444880083327 0.557959525733693 -0.79304851769246 -0.473944537682431 -0.644759958661089 -0.599717575954164 -0.845944063737174 0.522461255358121 0.106831070749352)
(-0.534027295018415 -0.836920471196579 -0.119912355774584 0.838363959528812 -0.542533847429791 0.0529423814745817 -0.109365074582731 -0.072257520612904 0.991371843041948)
(0.636539255466356 -0.696712377080096 -0.330771280303687 0.695481753473815 0.333165270092839 0.636636500201609 -0.333351026450084 -0.635289513865425 0.696623518650718)
(-0.774599745330208 -0.0232431384502958 -0.632024517759681 -0.632266592810329 0.00427846580090806 0.774739085335449 -0.0153032725387372 0.999720686614702 -0.0180099584739747)
(0.240570801819723 0.965101841640951 0.103460739283361 -0.941282376391844 0.257981022076413 -0.217791827538435 -0.236882201116795 -0.0449914159551949 0.970496056295135)
(-0.962056399237023 0.268300825969539 -0.0496200712530463 -0.112568029019918 -0.224630395067891 0.967920257280637 0.248547628292175 0.936779511088765 0.246309204202013)
(-0.0946826360453881 0.85214777749389 0.514664321420982 0.770866585619353 -0.264371382361541 0.579545062409999 0.629920554996468 0.451610382409961 -0.631860868302881)
(0.0481156442244514 0.974203780030699 -0.220481019035118 0.987741167186449 -0.0792246780188059 -0.134502182279576 -0.148500072141457 -0.211306519934229 -0.966073125186322)
(-0.022464260838171 -0.998293176551134 0.0539081685502417 -0.952396730922004 0.00497103906004165 -0.304820858373806 0.304032603373512 -0.058189538768667 -0.950882828567124)
(-0.296228346561905 0.154194896130998 -0.942588298622654 -0.49254226629818 0.820875794079424 0.289076195153334 0.818321992007457 0.549897140110427 -0.167219175620864)
(-0.897614656577452 -0.440389786239641 -0.0185678343687645 0.0794070936270453 -0.202998176858469 0.975954022315521 -0.433569419792319 0.874556216813957 0.217184211794989)