/*--------------------------------*- C++ -*----------------------------------*\
| =========                 |                                                 |
| \\      /  F ield         | OpenFOAM: The Open Source CFD Toolbox           |
|  \\    /   O peration     | Version:  2.4.0-MNF                             |
|   \\  /    A nd           | Web:      www.OpenFOAM.org                      |
|    \\/     M anipulation  |                                                 |
\*---------------------------------------------------------------------------*/
FoamFile
{
    version     2.0;
    format      ascii;
    class       tensorField;
    location    "0/lagrangian/polyMoleculeCloud";
    object      Q;
}
// * * * * * * * * * * * * * * * * * * * * * * * * * * * * * * * * * * * * * //


4298
(
(0.368740292869036 -0.865138250271977 0.339950591014636 0.868344858979763 0.451100581222964 0.206120041489709 -0.331674241234187 0.219189583549598 0.917577312363967)
(0.748424465774799 0.574994596305689 -0.330517825917098 0.625654778171373 -0.777452561977195 0.0642153597391232 -0.220038445688559 -0.254850403363137 -0.941612634964405)
(0.594425800772763 0.622720424673269 0.508799803528267 -0.728298267242382 0.685149717199727 0.0123084910885509 -0.340939292700919 -0.377874499954518 0.860796875561663)
(0.896496341345043 -0.41414109501036 -0.157421292646745 -0.0473142656640711 -0.442771290316127 0.895385361024214 -0.440517502739246 -0.795261427390648 -0.416537623612762)
(0.926742246858654 -0.123469782035111 0.354829565864481 -0.100371397343172 0.828758206667459 0.550531940469139 -0.362041973371532 -0.545815946822314 0.755652407997029)
(-0.693400469191462 -0.713310414337856 0.10190212030285 -0.442265761325308 0.30967386949125 -0.841726256519103 0.568855680893147 -0.628721200017522 -0.530200779859971)
(0.963707498667516 -0.110183898758795 -0.243161192352546 -0.00627358834879097 0.901252322487934 -0.433249227696178 0.266886678388469 0.419051022745938 0.867852372949659)
(-0.296350466313798 -0.798060405273812 0.524667504854069 -0.125301373467831 0.577083923347623 0.807015310400484 -0.946824147834575 0.173417804587403 -0.271017154677366)
(-0.889361828658329 -0.293122029888997 -0.350877490471056 -0.0706937689476166 0.846375641243104 -0.527873720639989 0.451705577514263 -0.444665885248777 -0.773456089082262)
(-0.134468045009815 0.846518871363118 -0.515096248576274 -0.954172643563342 0.029630532071215 0.297786161271004 0.267344181059888 0.531533472130673 0.803740789594586)
(0.547096083217863 -0.825784292134323 -0.1369897025031 -0.832172299996776 -0.554239396511101 0.0175486316585239 -0.0904164744156137 0.104398248161667 -0.990417016682885)
(-0.89646443326526 -0.43871878135491 0.0622683770212343 -0.137210054053538 0.141216939092673 -0.980423978276705 0.421337063355482 -0.887459073422408 -0.186792590975178)
(-0.721949316704298 0.64953588857838 -0.238521096674678 0.405206250983631 0.676285458024302 0.615179545684551 0.560889541954552 0.347478213293372 -0.751439826607865)
(-0.874302914971069 0.27982825140693 0.396598742544189 -0.302986204013153 -0.952984489050045 0.0044636092709868 0.379201493998628 -0.116261400922938 0.917981216368093)
(-0.752843245814153 -0.595056100092169 0.281309944678656 0.624202497758732 -0.509881881713463 0.591938939834251 -0.208802033093 0.621231602901394 0.755296634795095)
(-0.515356017812646 -0.605023235203653 0.606922614315859 -0.835407372407876 0.512574197807703 -0.198399127690518 -0.191056790067405 -0.609273810864618 -0.769599068582886)
(-0.0998784939871215 -0.460588245606282 -0.881976617857975 -0.976223875663781 0.216748648975026 -0.00263964987986164 0.192383032055459 0.860742987875491 -0.471285770844315)
(-0.891292840813211 -0.116519004871174 -0.438201316085366 -0.147919038401573 0.988266032073054 0.0380815956721355 0.428622246265251 0.0987601708909687 -0.898069818361644)
(-0.794521333499281 -0.549164038336827 -0.259142257480544 -0.0574167191120644 -0.35690411177981 0.93237480412175 -0.604515649905716 0.75567077089977 0.252036733487039)
(-0.379839510824061 0.762569730758938 0.523650027926265 -0.0590143083384626 -0.584898771358015 0.808956574035477 0.92316805481357 0.276370825150059 0.267170188414809)
(-0.128707841724362 0.983934638199469 0.123721134936344 0.990519914788512 0.133591964908751 -0.0319919571013941 -0.0480061442527401 0.118430632283627 -0.991801187461925)
(0.821320906017163 0.505622521626707 0.264154944990618 -0.0198084446759809 0.488048792102609 -0.872591543648403 -0.570122438480248 0.711445178598488 0.41086027185687)
(0.989917002836209 0.0811787337964601 -0.116079027713798 -0.0898326185585365 0.993396659865933 -0.0713664964120045 0.109519076597156 0.081074591250352 0.990672742390187)
(0.0981191742087284 -0.798408905399886 -0.594067207839949 -0.978223156985848 0.0323323953955817 -0.205022124036955 0.182899105490535 0.601246901019988 -0.777849652069487)
(0.656624758240265 -0.7233218709001 0.213657197265836 -0.692562157067094 -0.466069682870645 0.550578522381168 -0.29866634471344 -0.509494378562154 -0.806978248002434)
(-0.909742155456158 0.111747209759234 -0.399852187310522 0.113658060457786 -0.859269815075909 -0.498735631564847 -0.399313230282891 -0.499167252542109 0.769013002562768)
(0.729906388060265 -0.306015729911676 -0.611220940180751 -0.0712672282686386 0.855247211842126 -0.51329639469918 0.679821775794011 0.418218339725668 0.602441510416889)
(0.739205461802868 0.407879064762628 0.535919726982664 0.61621166867528 -0.730723730156875 -0.293812881906239 0.271769138478297 0.54742807629312 -0.791494811516019)
(0.978827621060461 0.173177870470511 -0.109114221934712 -0.155538699246383 0.282771639156745 -0.946492426343365 -0.133057135418819 0.943424414178426 0.303720551570406)
(0.729319319570734 0.617134897883568 0.295360538859069 0.60721849211449 -0.78277714023318 0.136182420167104 0.315244401909196 0.0800279110223587 -0.945630213414478)
(0.535182031323567 0.820624989264916 -0.200386677057972 -0.838036757045466 0.485964573920919 -0.248058111608104 -0.10618185903957 0.300687645053494 0.94779341257633)
(0.70642163966641 0.285799009338833 0.647524048412074 0.684538795790935 -0.508443638193078 -0.522390374947781 0.179930831343928 0.812283197562235 -0.554816098261356)
(-0.913129420901614 -0.246376672274481 -0.324797161383586 -0.399799925159314 0.385408843047197 0.831636966195964 -0.079716250077945 0.889246062156012 -0.450429528798387)
(0.454955011548596 0.89036521422251 -0.0163010051628904 -0.802423536801694 0.401943425478159 -0.441087236611472 -0.386176650062479 0.213755159042739 0.897316180021922)
(-0.0330761694498815 -0.989691090321613 -0.139346735708234 0.960797019061805 -0.0698866826192464 0.268300092721612 -0.275272692391512 -0.125009588954185 0.953203833129638)
(0.83937274378954 0.522028490991825 0.151458415335751 0.384878759954219 -0.767560544172806 0.512561363316871 0.383825138727679 -0.371936910808734 -0.845187078260626)
(0.53492095156884 0.763837312760434 0.361126203989139 0.443509224166426 -0.617648190349054 0.649469230247156 0.719137777934091 -0.187251896101101 -0.669161851688036)
(-0.756627771166347 -0.65264514356844 -0.0396072275775053 -0.59448654369257 0.661454764187055 0.457234452226327 -0.272213455340307 0.369502248316267 -0.888463799611956)
(0.46919358432666 0.774876982262101 -0.423583572376315 0.765862612206001 -0.595853339459146 -0.241688347009914 -0.43967242311942 -0.211008199404107 -0.873019873847403)
(-0.907049759892364 -0.375001771196813 0.191401161643438 0.337302279443504 -0.919316709846471 -0.202691783946158 0.251968064169689 -0.119291485850051 0.960354953151316)
(-0.0755700328528711 0.0277683163842561 0.996753776386024 -0.470158954314986 -0.882512456162013 -0.0110599455844268 0.87934050731901 -0.469468513666333 0.0797470178995408)
(-0.336308974615602 -0.935464185779934 0.108641754017908 -0.921312343291797 0.35071731970261 0.167871759860896 -0.195140563930669 -0.0436362095478356 -0.979804083235581)
(-0.985714932122978 -0.154636569838613 0.0667353269141716 0.146188866586303 -0.982323278099514 -0.11691788823801 0.083635446289272 -0.105491746465643 0.990896868272184)
(-0.881063525427424 0.218465489279538 0.419523413119281 -0.369261738569765 0.236584074741328 -0.898706706332619 -0.295588958842907 -0.946731643905834 -0.127774652562723)
(0.262497085518551 -0.964193384472849 -0.0377676770937829 -0.954924588109509 -0.253952813448085 -0.153710765939434 0.138615695785691 0.0764139115645591 -0.987393843915007)
(0.932909295020405 0.209837393959467 -0.292657676066817 0.328119593719093 -0.830181424315504 0.450706484243458 -0.148383892259735 -0.516494986246508 -0.843335727750266)
(0.66960339600482 0.742710146527889 0.0035958730975841 0.452212907348285 -0.403850295787403 -0.795241111248682 -0.589181447846436 0.534122248962678 -0.606282644215244)
(0.690610096530215 0.673537705448046 -0.263447630299285 -0.401680171947316 0.660129889702505 0.63472952364431 0.601423922067373 -0.332528928156845 0.726439108187299)
(-0.442052411755139 0.504108704817935 0.741932664726556 -0.043244568057994 -0.8381520400638 0.543719656689335 0.895946188448247 0.208268027943981 0.392307093921819)
(-0.963980613070097 0.2376940840773 0.119343621612778 -0.258559160763485 -0.732276627013532 -0.630014366435374 -0.0623581430952128 -0.638179021846015 0.76735845474288)
(0.154675376461411 0.545178025765104 0.823927453201666 -0.250164007757843 0.828398159688272 -0.501173082125943 -0.95576853742894 -0.128597858644486 0.264516717076631)
(-0.426539772976209 -0.875989147012544 -0.225181785199511 -0.0901194780488392 -0.206565505687111 0.974273663575298 -0.899967944843375 0.435859732226393 0.0091647191952779)
(-0.372698782969665 -0.586350673162068 0.719227714465537 0.841989469733527 -0.539482604460666 -0.00350033458269742 0.390063264139017 0.604277591481536 0.694765602489422)
(-0.522453802602851 0.471723103185854 -0.710295247109629 -0.690069296133129 0.255388661693584 0.677186088171256 0.500845675513076 0.843951388054471 0.192092852341731)
(0.118881809547894 -0.929015858122321 0.350423530482566 0.662587879139144 -0.18862197183609 -0.724844158532409 0.739489295241323 0.318357169069448 0.593130925787534)
(0.997991043621629 -0.0458005493061213 -0.0437742679467015 0.0456023948200368 0.998944445121861 -0.00551517423614238 0.0439806598141677 0.00350788304181928 0.999026224039627)
(0.528923680689315 -0.40510125667145 -0.745743060208595 0.533405323336793 0.842148569968408 -0.0791488921977839 0.660089767412008 -0.355919594773002 0.661515488113909)
(-0.484147719842955 -0.862578170043568 -0.146832850327024 -0.623220372029324 0.222161275264392 0.749827137185985 -0.614163946563537 0.454536322351899 -0.645135162895584)
(-0.79763883369928 0.131790056194769 -0.588560678318753 0.28620361844023 0.941675877461166 -0.177014210162524 0.53090468049036 -0.309641603948698 -0.788836039578255)
(-0.989774502655873 -0.142586457526645 -0.00394157612144997 0.142639038596597 -0.989525619615731 -0.0222070437551432 -0.000733866852655279 -0.022542188316723 0.9997456232389)
(0.927775913132637 -0.334163701598861 -0.166031549847156 -0.368323862184243 -0.891394704602983 -0.264107957380014 -0.0597443516709612 0.306186383007978 -0.950095001199305)
(0.226511062111714 -0.774253049732956 0.590952581617375 -0.853285576038229 0.134827911438449 0.503711385638893 -0.469676978854756 -0.618347514975489 -0.630118946118514)
(0.4639487405021 0.867342857866859 0.18018860422864 -0.86020293991466 0.489693462768429 -0.142306762608252 -0.211665935730555 -0.0889757238195656 0.973283541534579)
(-0.676454201882006 0.736380446872654 0.0123915382342086 -0.736482883852423 -0.676394140605878 -0.00916124153448616 0.00163540471963919 -0.0153233161445566 0.999881253666523)
(0.160468818587758 -0.225798826534006 0.960866613113868 0.970395566196435 0.214116159310959 -0.111743972670673 -0.180505410908784 0.950352124350648 0.253473147246135)
(-0.754464521933093 0.373212979910345 -0.539903099426842 0.284780516028221 0.927273216372887 0.243031767240788 0.59134029360003 0.0296049628258641 -0.80587852889943)
(0.364920091559081 0.563726946585627 0.740975881166019 0.929894539306959 -0.260126998207781 -0.260057860043697 0.0461462083340561 0.783929763752248 -0.619132177293133)
(-0.0861194962085769 -0.981408368209354 0.171525645841762 0.855630531817516 -0.161052906818388 -0.491892624692648 0.510372241990545 0.104401034544685 0.853592759219257)
(-0.942972483632495 -0.332853382292996 -0.00339426105016756 -0.332846085724986 0.942977740228684 -0.00254256774928434 0.00404701488989163 -0.00126780492086949 -0.999991007130146)
(-0.169873184220728 0.985307846694401 -0.0176507372410658 0.985419292547203 0.170012149631348 0.00668482262284671 0.00958744796498279 -0.0162578049001338 -0.999821866444892)
(-0.371722189880814 -0.824008496736118 -0.42758930161651 -0.129484088290241 0.502111548044822 -0.855054304824949 0.919269538508623 -0.262476647774073 -0.293341993146956)
(0.946763649929002 0.10835559837769 -0.303146260859882 0.31240813364035 -0.536559964350495 0.783903414134387 -0.0777158234111189 -0.836876615132965 -0.541846640512907)
(-0.630341331818268 0.749354125931187 -0.202825539199283 0.727639471568666 0.661355720594304 0.182069795003074 0.270574582725069 -0.0328177510974791 -0.962139485935412)
(0.56238613652098 0.575871964726449 -0.593374513853692 -0.662815878127601 0.742999315119085 0.0928823418875052 0.494365194113565 0.341062308053339 0.799549596256784)
(-0.710520710976002 0.526917182881603 -0.466388895299053 -0.650037691859771 -0.237679198260703 0.721775309826937 0.269464874215132 0.816006667312384 0.511392022294011)
(0.130428427296888 0.421949394426425 0.897188460634684 0.387450658619173 0.811267652786546 -0.437866169825641 -0.912617341764022 0.404726455875301 -0.0576722067046931)
(0.805731608189242 -0.586908066308133 -0.0795958369968328 0.521903361273614 0.76708794967489 -0.373085726013309 0.280024029426194 0.259065627141121 0.924376299878948)
(-0.0668429621834726 -0.993435508487915 -0.0928326929583421 0.935691263748369 -0.0301082794044941 -0.351532858288214 0.3464301911663 -0.110360237344163 0.931561452971204)
(0.277058852234085 -0.883175025542906 0.378470958801357 0.78350240921417 -0.0203528536151242 -0.621055340614113 0.556203530332487 0.468601787882855 0.686330822008359)
(0.535998689051075 0.78575888531092 -0.308688158973534 0.563980961105195 -0.0611930592714991 0.823517385977889 0.628196530431671 -0.615498483874603 -0.475952450883148)
(-0.983460495678896 0.126595297030218 -0.129534104423706 -0.102766056684922 -0.97892400385899 -0.176484934943793 -0.149146206899311 -0.160254252481843 0.975742785537784)
(-0.98974863487578 0.106115966592841 0.0955878726387277 -0.11391859841542 -0.990244408312491 -0.0802406676250331 0.0861405403779014 -0.0903073277199133 0.992181633504416)
(-0.646236474254409 -0.57126242189796 0.506001644928659 0.2321403174551 -0.778787031602796 -0.582753491983661 0.726972690240202 -0.259133179532424 0.635893625467609)
(0.787529758374166 -0.55174982624383 0.27453416711774 0.421891020941944 0.157957305628343 -0.892780743546364 0.449226942784704 0.818914903294926 0.357174376233473)
(0.973357551872804 -0.228464036803522 0.0194746013982503 -0.123376700640437 -0.593437457203637 -0.795367948893317 0.193269930282137 0.771774687506088 -0.605813969609168)
(-0.175815835428808 0.965789347435748 -0.190629820311784 -0.982261721563427 -0.184934192445143 -0.0310041096617122 -0.0651974107133339 0.181797362038879 0.981172266623951)
(0.278143091779545 0.477676831329782 0.833343425789185 -0.417992569336782 -0.720932876183667 0.55275491858217 0.86482289081323 -0.502076321736333 -0.000857133107056771)
(0.322130242789694 -0.82686510447193 0.461005646046637 0.518605287487448 -0.253267562051997 -0.816641964267267 0.792010519166453 0.50214503982302 0.34723147396344)
(-0.981594561457328 0.0283718132359884 -0.188857504831286 -0.0335775119646339 -0.999137702448441 0.0244213479626954 -0.188001775543907 0.0303132274717222 0.981700789768749)
(0.548490676337455 -0.437557417186503 0.712531742897085 -0.641342246293348 -0.766918008677504 0.0227352388493042 0.536505452992124 -0.469446775078079 -0.701271434095606)
(-0.794075371019915 0.353824084007153 -0.494219407466039 0.117379605392332 -0.708529251692954 -0.695850794160187 -0.596377676793426 -0.610569256572849 0.521093897057483)
(-0.302156065471053 -0.196582956659465 -0.932768381352024 -0.733251963220663 0.673196088285925 0.0956482365209771 0.609133212468419 0.712854941672955 -0.347555120233254)
(-0.775562777911173 -0.62421511619568 -0.0941162378738009 -0.00662861889856464 0.157134715863904 -0.987554931374386 0.631235644533959 -0.765286985243564 -0.126005520857677)
(0.863556759489717 0.476887358006275 -0.163854114728359 0.0285023103099277 0.278262820415364 0.960081986645663 0.503445470181842 -0.833755510055725 0.226703348023585)
(0.678872432047527 -0.48657956396779 -0.549884123188506 0.346827594251821 0.872588110660683 -0.343948555745061 0.647180686417148 0.0427822049751426 0.761135232443023)
(0.572014431187791 -0.820162408489355 0.0115375133303594 -0.818629692773768 -0.569950564168326 0.0707232671285304 -0.0514287528726336 -0.0498996804112739 -0.99742924825414)
(-0.312936703873791 -0.717178039902043 0.622676704599482 0.944398836799693 -0.165311464002142 0.284223427818423 -0.100903203219687 0.676999098191225 0.729034131319155)
(0.871620194832731 0.0449975359274465 -0.488112136419707 0.102977542852116 0.956746958145859 0.272086169708766 0.479243008950462 -0.287420388697644 0.829286234380508)
(0.836140224258906 -0.0272483367221684 -0.547838528694488 -0.545517544895557 -0.145594060983951 -0.825356273143499 -0.0572724505097349 0.988969108492311 -0.13660149655305)
(-0.895604734377529 0.0940718338786405 -0.434790351584836 -0.299263929061775 -0.850565861155529 0.432410472351517 -0.329140183695435 0.517385935165871 0.789923118771361)
(0.335753238856542 -0.879385080229324 0.337567242586432 -0.939614154559503 -0.337897282677882 0.0543200415163201 0.0662948199241313 -0.335421089123759 -0.93973277575184)
(0.913355592794916 -0.40579804825051 -0.0333092351507065 0.0659288740933958 0.228125776731965 -0.971396939232987 0.401789677158368 0.885034786901913 0.235113762469278)
(-0.242474619417083 -0.919107549798908 0.310559770158964 -0.470664807439082 -0.168472976920339 -0.866078226885961 0.848339966037716 -0.35617154286979 -0.391741156981087)
(-0.33698752631251 0.941452486374247 -0.0103258418312229 0.941380473828526 0.337102508926635 0.0128336265236269 0.0155631167879518 -0.00539577381993936 -0.99986432830696)
(-0.976827310606176 -0.20887413587211 -0.0466904767333348 0.209895200535738 -0.977556324948304 -0.0181007277651815 -0.0418617969749145 -0.0274813921999293 0.998745394500913)
(-0.163028096753297 -0.986201734249891 -0.0287746247847641 0.985116079763138 -0.161099645900888 -0.0599434190108956 0.0544807219216568 -0.0381188070788538 0.997786954958713)
(0.641682629030435 0.684421754471655 -0.346136195169663 0.723477143606752 -0.390330691105223 0.569405632444862 0.254606021686848 -0.615799328992214 -0.745631920007141)
(-0.608461351778862 -0.633086284958885 -0.478514930998395 0.104353811256823 0.533914869185879 -0.839074010167399 0.78669248468993 -0.560478963261944 -0.258801596349792)
(-0.416735482782354 -0.901828758181313 0.114177179450665 -0.891508083535233 0.380926165669228 -0.245170539216841 0.177608767749497 -0.203961141460061 -0.962733077437778)
(-0.331971890015304 -0.794713909037704 -0.508157915437395 0.940282365059042 -0.235812786706754 -0.245481982199448 0.0752578115456597 -0.5593050441464 0.825538690428105)
(0.918020726866582 0.282757287262314 0.278004067494361 -0.11622919145533 -0.478416823526161 0.870406869240344 0.379115708058888 -0.83136373475585 -0.406331909202087)
(0.145476371535862 0.903638141775465 -0.402833382496218 -0.590349750082833 -0.247451964082739 -0.768280351205686 -0.79392934062289 0.349579224497366 0.497464137298282)
(0.808070448732836 -0.296890295722531 0.508800847277696 0.390444110348553 0.916674861165402 -0.0852091286278462 -0.441107182642541 0.267513272966368 0.856656933788539)
(0.515964684752003 -0.856606475619736 0.00240624502091503 0.815161021185628 0.491859946034836 0.305918785016893 -0.263235547805327 -0.155881812322485 0.952054571418407)
(-0.127962386570346 0.395397966768867 0.90955267879231 0.412379304291023 -0.81284387498115 0.411373485166559 0.901980563546506 0.427721033830083 -0.0590404963025545)
(0.739226023982406 -0.662953401747482 -0.118480684411444 -0.668307605641076 -0.70041659536451 -0.250562441679276 0.0831253854695106 0.264403820035623 -0.960822975496067)
(0.868750880281991 0.233133448535133 0.43694473699014 -0.444599769722736 -0.021551913021572 0.895470021724681 0.218181009191351 -0.972205899086828 0.0849278341241361)
(0.116805045151989 -0.768579501370296 -0.62900089944326 0.975872288727745 -0.0288182052191436 0.216431945750208 -0.184471833948479 -0.63910489054719 0.746669325309638)
(-0.137270320262826 0.810720584831015 0.569112460332928 0.283915458568951 0.582647347894596 -0.761520899501107 -0.948972534671327 0.0570456073913754 -0.310156294659363)
(0.353729383902136 -0.735065905992468 -0.578406117543451 0.481837569459031 0.673224404676374 -0.560893445857549 0.801690763088879 -0.080293304799434 0.592321623429667)
(0.557384779068885 -0.217687052402352 -0.801208184730227 -0.483664248933372 0.699224639506489 -0.526453984514066 0.674826720251982 0.680953192755123 0.284449726508142)
(0.936476236955189 0.114545264283456 0.331499080011518 -0.218775472413287 -0.547973206457823 0.8073801196925 0.274134182999116 -0.828616164116152 -0.488104192029573)
(0.879751190552357 0.365083554272603 0.304551869344771 0.0271992417813913 0.600878847350219 -0.798877219636152 -0.474655710982422 0.711096765009345 0.518693885471013)
(-0.959447790093133 0.255242181764261 0.119630124691161 0.120598571613797 0.755269348799955 -0.644223715248052 -0.254786032996542 -0.603671797760597 -0.755423350167556)
(0.479115540529412 -0.773645869735021 0.414632809923614 0.343724257503284 -0.269287701773442 -0.899632018370508 0.807652111757919 0.573547035486646 0.136900929352047)
(-0.677203604592193 -0.674500308150241 0.294014646289213 -0.658387021013006 0.377073866435621 -0.65141525144328 0.328514548367284 -0.634716183468266 -0.699438030103109)
(0.79725838666358 0.293574931399624 -0.527439877662177 -0.431576231888832 0.888128330200939 -0.158019065821596 0.422043861421089 0.35361254042836 0.834767722356691)
(0.948071336739069 -0.317299040567911 0.0219558490721313 0.317735344742725 0.947958412227344 -0.0204719170727822 -0.0143175121797411 0.0263849870588568 0.999549319094804)
(0.196081526243694 -0.979784581114606 -0.0396763112703274 0.980338273159556 0.196783507501091 -0.014598676450528 0.0221112017873883 -0.0360336757165364 0.999105934808653)
(0.602073330981467 -0.77125543831758 0.206573843906818 -0.683187624506432 -0.363723324003419 0.633214034349495 -0.413234042453111 -0.522369976588875 -0.745900284030244)
(0.486426480485782 0.262502157017509 0.833355804349721 0.112751232786772 0.926965735552011 -0.35780118029093 -0.866415857765356 0.268005863133019 0.421303238462568)
(-0.351143308232871 -0.201553774647529 -0.914371069647661 0.219969560054744 0.931467308178269 -0.289796560442756 0.9101163495579 -0.302893924865558 -0.282742816967894)
(-0.840874695523579 -0.433067102117257 -0.324626911225626 -0.408312631151098 0.113890102382858 0.905709578077702 -0.355261230182236 0.894137533963866 -0.272594073094813)
(-0.103364490755108 0.936934655461054 0.333870084684167 -0.250230492495966 0.300376506333015 -0.920412220186367 -0.962652836008996 -0.178682416144531 0.203401355660647)
(0.758845724109632 0.320204113913859 0.567117705977487 0.176010458482762 -0.939214754857727 0.294781211684576 0.627035473881036 -0.123874814591907 -0.769078373642508)
(-0.288675929678779 0.822496348368783 0.490067306136728 -0.295254164420453 0.410435169712244 -0.862767610574053 -0.91076406715267 -0.393754655062385 0.124362717886949)
(0.472554386704091 0.88101899921171 0.0223131045513143 -0.728345104167983 0.404668646067959 -0.552952706950652 -0.496191254297423 0.245048586850695 0.832913818615845)
(-0.269735999114205 -0.85449009757566 0.443947253541454 -0.558312394063236 0.514412955756811 0.65089675186232 -0.784557047904892 -0.072290968278754 -0.61582810465915)
(-0.559996886263919 0.496362767235907 -0.663345679624604 -0.131408247815381 -0.84374253620453 -0.5204136864123 -0.818006943601829 -0.204260950504644 0.537719354606223)
(-0.0612729976813743 -0.180666488824996 0.981633964148952 -0.681662919159533 -0.71082833028033 -0.173374593045762 0.729096210659501 -0.679766654585621 -0.0795990635336279)
(0.822101978218142 0.543081270796773 0.170912465079583 0.50488103596882 -0.556656099972298 -0.659718974929994 -0.263141553025873 0.628646736787358 -0.73181951558956)
(0.17136358645049 -0.631712760300897 0.756024807603459 -0.948569045654485 0.101534544338309 0.299845796922605 -0.266179050387077 -0.768524381382292 -0.581823846499952)
(0.10221381092492 -0.0903443685278785 -0.990651417972792 0.844300357388449 -0.51873689514686 0.13442075779854 -0.526031599212388 -0.850147004163806 0.0232557077158003)
(-0.0506345158841127 0.0717902600585234 0.996133677957889 0.0965018204514708 -0.992394305013184 0.0764260559426726 0.994044035468617 0.0999985096795448 0.043321514414161)
(0.431169701553593 0.86299795461222 0.263300624376985 -0.0806138229681606 -0.253806580403324 0.96388984396062 0.89866239490069 -0.436825766271972 -0.0398641431898448)
(0.437781136479886 0.767447451940502 0.468371738101703 0.600660358037605 -0.637281228054301 0.482783357886058 0.668995374292316 0.0699788888139305 -0.739964961532539)
(0.900632438507134 0.313424309153009 -0.301042211559528 0.413211541301344 -0.832155959055152 0.36982790855257 -0.134601013532811 -0.457473127342972 -0.878977192488508)
(-0.27494457416531 -0.960146790715439 0.0502356588082602 0.944850476308661 -0.260155741287295 0.198938602826486 -0.177941165996945 0.102162275591834 0.97872356203861)
(-0.263703343630215 0.964580167399307 -0.00675627250550013 -0.964161391339818 -0.263788041192852 -0.0284373130464971 -0.0292122920687677 -0.000984877435046479 0.999572744730731)
(0.620082560741793 0.784271006272629 0.0204109427518342 0.784387151901702 -0.619246894301587 -0.035638179377954 -0.0153105778936316 0.038108694781597 -0.9991563008792)
(0.175844036097288 -0.98422980259369 0.0192502118274587 -0.796745867484698 -0.153778357688973 -0.584421285848263 0.578165112761978 0.0874294709629929 -0.811222034952244)
(0.678663268921656 0.168586532294089 -0.714838966862905 0.719303162156527 0.0440770143591377 0.693296601547134 0.148388437312996 -0.984700867235445 -0.0913513751268626)
(0.927003134232351 -0.340862445694202 0.156454409457724 0.364995560452241 0.723941347015685 -0.585394881196675 0.0862753149721972 0.599768054498139 0.795509177087207)
(-0.800009729882951 -0.434478096287448 0.413779187416481 -0.591015085920215 0.689479337537977 -0.418711608774958 -0.103371177352919 -0.579523103037858 -0.80837328799141)
(0.629574969463448 0.584444648788661 0.511917776920665 -0.194283968099928 -0.51952904557179 0.832071697960345 0.752256005336245 -0.623308930875824 -0.213534257499804)
(-0.468552245364609 -0.507103291988287 -0.723398261415125 0.472802513718336 -0.835648524500442 0.27955201040568 -0.746268434536398 -0.211039794244773 0.63130470365721)
(-0.88887592112441 -0.45381065738133 -0.0628926394131835 0.442728977027886 -0.886142998039007 0.136900109299746 -0.117858600641078 0.0938428168458621 0.988586301736657)
(0.432623023391459 0.851118617028087 -0.297379251764189 0.605471782200111 -0.0298826240454011 0.795305570041844 0.668012904509377 -0.52412224578657 -0.528256217077082)
(-0.987674453288586 0.1243232594499 -0.0950941716449885 -0.0203387928353322 0.500454711196073 0.865523781041086 0.155195063797451 0.856789827904959 -0.491757748257713)
(-0.169209161353929 0.717714384486312 0.675466003597024 -0.923034462621229 -0.355658760782373 0.146677287581567 0.345507800964665 -0.598659258827742 0.722655831840012)
(-0.213598824525657 0.917090297288601 -0.336631740601452 -0.955485082504828 -0.124327680597705 0.267564730388623 0.2035283746115 0.378798118337856 0.902822344800847)
(-0.159774041942909 -0.980525564582543 0.114201018915382 0.724756856268643 -0.0379713425040979 0.687957612386134 -0.670223660290219 0.192685739868114 0.716709460547759)
(-0.129430400035235 0.879391330559852 0.458168810901498 0.361552497343763 -0.388392898596025 0.84760294241152 0.923324191826039 0.275357665693824 -0.267676283470241)
(-0.894653071964339 0.351831880677352 0.27533653692129 -0.327160089558324 -0.935629647474258 0.132527123893131 0.304240294216531 0.0284866724317401 0.952169287925632)
(-0.0540029482743428 0.994881014153064 0.08541340208334 -0.898487385282883 -0.0110933008529816 -0.438859154130017 -0.43566512376504 -0.100442552506181 0.894487112026124)
(0.130751477246168 0.948294105534687 0.289209855651761 0.0127860996670198 0.290076975285789 -0.956917898288225 -0.991332722577667 0.128816294843531 0.025803010086703)
(0.545977032823968 0.297924110160515 0.783039146028984 -0.216465646768458 0.953065097704439 -0.211682647627862 -0.809352644647467 -0.0539272113380031 0.584841989326568)
(0.128616432582774 0.362102590136617 0.923222360802658 -0.285577071671999 -0.877995345144333 0.38414829173137 0.949686026750382 -0.313058921165389 -0.00951643178068463)
(-0.260069256629906 -0.127899267372255 0.95708189783404 -0.650997870932924 -0.708819218681448 -0.271619379405487 0.71313796266695 -0.693698127886664 0.101079936534256)
(0.884011894423181 -0.0481835483484326 -0.4649745328369 0.359108232285073 -0.566796737560508 0.74147335474436 -0.299272865498075 -0.822447447536509 -0.483751948851115)
(0.695067357617163 0.661409858007708 -0.281812647170632 0.660428993111707 -0.74229671236544 -0.113265775364474 -0.284103701898712 -0.107389899626001 -0.952760460989941)
(-0.92477719165474 0.371301433059387 0.0832009110720486 0.0501832897069854 0.335759470604713 -0.94061002298159 -0.377185343338468 -0.865679400071001 -0.329135827681147)