/*--------------------------------*- C++ -*----------------------------------*\
| =========                 |                                                 |
| \\      /  F ield         | OpenFOAM: The Open Source CFD Toolbox           |
|  \\    /   O peration     | Version:  2.4.0-MNF                             |
|   \\  /    A nd           | Web:      www.OpenFOAM.org                      |
|    \\/     M anipulation  |                                                 |
\*---------------------------------------------------------------------------*/
FoamFile
{
    version     2.0;
    format      ascii;
    class       vectorField;
    location    "0/lagrangian/polyMoleculeCloud";
    object      v;
}
// * * * * * * * * * * * * * * * * * * * * * * * * * * * * * * * * * * * * * //


4298
(
(-1.33515191711039 2.30509152750922 3.65711295720911)
(1.15345431439604 0 0)
(-4.27440229461077 -2.27727859395558 -0.992229060479174)
(-3.56930465437866 0 0)
(2.6909425930231 2.26970034079825 0.458570305863012)
(-0.197476350546535 0 0)
(-1.3205841920412 -2.22814185958439 1.95328351581668)
(0.864916274626776 0 0)
(0 -1.77283101481571 -1.06628737500878)
(1.81953705312497 -0.12696783659756 4.81405379716339)
(0.195075830098161 1.33546074366848 -2.07991732169223)
(2.45130511248455 1.45949932846466 2.25903260046982)
(-4.1723824076332 -1.1502943983117 3.04426764946416)
(2.4777836685015 0.850648440210791 1.84876360915739)
(0 -0.849424603498899 -1.24492168894597)
(0 -3.45375958330444 -0.0134504605960055)
(-1.93257362213362 0.0119400336544904 3.27259036397869)
(3.18215411239927 -0.64483864867014 -2.96814034153388)
(-0.344559939568424 1.41605996460236 -4.23935108698258)
(1.8582948660446 -1.63044917651924 1.26007208374932)
(-0.527162486510867 -2.6091230236923 -6.23313258276078)
(-1.29255062650213 -1.20592882148846 -3.39678173360767)
(0 -1.99806624183183 -3.63758192633377)
(-2.97915499529362 2.61308107736238 0.440153099403737)
(0.824668183680637 -0.702349995176359 1.32342063605101)
(0 -0.913959495440711 -1.72249623454689)
(-1.04532468410975 -0.41650346861912 -1.50748977732891)
(1.41836373604356 -2.72059902459957 -0.570230917169088)
(0 1.18254916401681 2.72638236187465)
(-4.21305670287664 0 0)
(-0.430788009621652 0.858432651438157 1.27068993215484)
(1.87240966155661 0 0)
(1.41961758346159 0 0)
(4.59973100751402 0 0)
(0 0 0)
(0 1.12051358653759 -1.68316717508015)
(0 0 0)
(0 -1.22324087766884 -0.873359236291461)
(-0.41291158245316 -1.21287257302481 2.49727135452284)
(-0.0174989387339393 0 0)
(-1.70388921675808 0.433163150231122 2.86204870576715)
(2.06930158337048 -3.25643268737137 1.54463433480379)
(0.058784209856741 0 0)
(-1.41839229142265 0 0)
(0 -1.86925632577844 -1.58648515036254)
(0 0 0)
(-4.10068877710766 3.00278811260409 1.18563551557483)
(-1.80389105798155 -0.371018098990311 3.49564587281956)
(1.80885737880417 1.68225571162932 -1.13567570090832)
(0 0.849791135552625 1.72794752028794)
(0 -1.47216435250265 -0.338498133829387)
(0 -1.13784418406764 -2.67581622167523)
(0 -1.77959142767982 -2.71215813368248)
(0.283787672821403 3.91989538026555 -1.16989934056571)
(0.274555743703321 -0.194186601936563 -2.49117606150748)
(4.9846067914549 0 0)
(1.3305825282223 0 0)
(-0.0310089038642933 0.741854459094862 -1.93214685455007)
(-2.10417312457801 1.89094977331558 1.62429063666692)
(0 1.04051981813111 1.67298802189938)
(0 -3.65427385642214 -0.496986352857128)
(0 0 0)
(-2.90258541076553 0 0)
(-2.11626591449069 -3.37178249599434 -2.1234488016994)
(0 0 0)
(0 4.29916606748054 0.993868983285634)
(-2.70170304265658 0 0)
(-2.04546148640913 2.2664659923318 -0.0681613481516414)
(-2.21779420622188 2.03374676480871 7.63056113607626)
(-1.50871285820698 0 0)
(-4.28474438734141 1.47397032860014 0.529452502274905)
(0 0 0)
(1.32357146935941 -5.00623015529055 3.9934922108778)
(0 0.983467323379335 2.61731560462293)
(0.428918106908609 -4.60689861980061 -2.51645446373414)
(-1.4065095704655 3.8001864858309 -1.75253796173549)
(0 2.53123977576666 -1.17271374518642)
(0.075151821862085 -1.9341025467321 -0.434624878097209)
(0 0 0)
(2.9645512508932 -3.09490913089238 -1.08690991420928)
(1.87026725626024 -1.45416403831288 0.282186381121141)
(0 -2.40687441472018 -0.308500904395184)
(0 -3.79411686915884 -0.0245938392043052)
(3.98180751337091 -0.658592853070011 -3.51490340304398)
(0 0 0)
(-0.309439300830237 0 0)
(0 2.52713194479944 -0.0388274724680799)
(-2.65310915124993 1.47392774713119 -0.475933150301328)
(0 0 0)
(0 3.17327014553866 1.39408713012068)
(-0.395645388286442 -3.78726320536872 3.23233876563663)
(-0.827387316963556 0 0)
(0 -3.42260339951927 1.45878787475289)
(0.542885526650276 -1.80454432709379 -1.94508642979034)
(1.52888512367454 -3.31788243539824 1.12451927777545)
(2.71851170702884 4.10418560334312 2.00644934559717)
(-1.35783484071625 0 0)
(0 1.97953124440098 -0.453158365097734)
(1.47598738595437 2.05318932862261 1.11747078522808)
(5.09679225234621 1.94735495431161 4.79579501487144)
(-2.78606125396034 -1.95918808028556 0.517704165204876)
(2.72948448126868 -2.20373211401011 -3.26064545515818)
(0.619520409043322 -1.42406211246461 0.764408618933832)
(0 0 0)
(0.495528160503206 -0.202114508727495 -1.91063976364922)
(-1.27592160288399 5.27258879476757 2.47813194943596)
(-0.544892326555273 3.30189176889674 -5.0940483993083)
(-1.45172003456735 2.84304592118042 1.86482951271412)
(-4.16345002041979 0 0)
(-0.60524302432019 1.31574324456398 1.56887583095191)
(0.761012439514651 -0.478940605692499 -2.23836533916918)
(0.394602849383053 0 0)
(0 -3.6971592487164 -2.6624810837701)
(-1.55692144010013 3.2692576744951 3.65744399905346)
(0 -2.20069328751958 -1.28318781601789)
(1.8375295505782 -0.715170259148724 -3.09503306551393)
(0.497174044433706 2.726317534185 -0.0328556650356266)
(0.026356488384415 1.7477958237471 1.70023849378547)
(-0.318484270775068 1.80898200125012 2.12567110474205)
(0 0 0)
(2.14865968919192 4.03764557731854 -0.323031826966455)
(-0.837035787832245 -0.589569631046333 1.42185572146928)
(0 0 0)
(1.7533181595286 -0.279602865495929 -4.25527521666943)
(0.452424780376435 0 0)
(1.55967621659792 -0.687104508393054 -2.36186168207102)
(0.345724289109996 0 0)
(0 -2.42612577319504 0.0588454137467711)
(0.902413174000014 -4.68043793090276 3.10729322730376)
(-1.05396050488181 -1.53721755520641 1.59361479266127)
(-3.00599322381318 2.93672646629158 -1.54524046029837)
(-2.00413460450922 4.95953548673808 0.323658848210976)
(2.53187837496281 0 0)
(-1.91343277506102 0 0)
(-4.9799361147766 -2.56409977466991 -1.8085584247629)
(3.51293609244675 -2.73312889696802 -2.73290340728007)
(-0.538624725858538 1.13323403767231 -1.08493683196055)
(3.39446980368908 -2.04463330084449 -3.99400475388872)
(-2.30102442975202 0 0)
(-1.91185749181991 1.19589784774487 2.89588910746241)
(0.578805685218815 -4.43025633544652 1.34370575049102)
(1.42730437409244 -2.32246124087152 4.30273700710662)
(0.418155584817189 1.31455695052693 3.3488614340973)
(-2.51171161455811 0 0)
(0 0.594498000828732 1.96100626061118)
(3.18557050220205 0 0)
(0 0 0)
(0 0 0)
(0 0 0)
(0 -3.17882010516135 2.14324318641921)
(0 2.5868215092309 -5.52431344568586)
(-1.57046027906222 0 0)
(2.6683463545295 -1.42660311918834 1.73210027362248)
(-0.297335906558649 -3.61663361784686 -3.45779760684767)
(-2.38133169172089 0 0)
(-0.591919549063453 0.287973316387237 2.42091970680135)
(0.351697433757999 2.55491963891884 2.38472051648149)
(2.11631323102187 3.85575563308917 -0.0588178644170406)
(0.522867457715448 0 0)
(-0.00940452919760379 0.481206616582766 2.22800665493267)
(0.369205793420748 0 0)
(-3.34237372591928 3.54084019508859 -3.63740581585446)
(-2.54699071627342 -4.18953362161578 -3.15473364671405)
(0.312661677543599 -3.03715168729923 2.57514104363853)
(0 0 0)
(0 0.909627349749959 1.2515794288884)
(0 -1.26622883695623 -3.89977954605633)
(0 0 0)
(-0.457872105945472 0.37659647409558 -1.52605331599034)
(1.13154239482954 3.4202165989938 1.09756857941682)
(2.08620081197677 0 0)
(0 -1.29209753839992 2.80282519190087)
(-2.37371740275153 2.17059409983067 2.73177879185607)
(0 -1.46984208791219 -0.131251222642472)
(0 0 0)
(1.55371135097293 2.55178119539302 0.480995908011787)
(-0.324927310924808 0 0)
(0 0 0)
(1.55900185485593 3.98239988405875 1.82488147698863)
(0 2.33477075715994 -3.74978507371752)
(1.39469985839413 1.51275987047022 0.3665283893956)
(-0.228433881968796 0 0)
(-0.119087886944739 0 0)
(0 -1.33104829531144 -0.850805706717325)
(-0.417801941657302 1.52420709113203 -0.402895234771626)
(0 1.09372200072994 -2.64741392945396)
(-2.50088612399565 -1.15396457856121 -0.934053974871114)
(-1.52334451364597 1.41474104522797 2.50580754879295)
(0 1.55472548037783 1.16689151199229)
(0 -2.0006514506819 3.2422561905946)
(-0.465691701718642 0 0)
(0 0 0)
(2.36445068008938 0 0)
(2.54671189475742 -2.35733794099037 -0.639049811601459)
(-4.62929606588605 0 0)
(-0.848378726829882 3.26880117364765 -2.34494862477941)
(0 -2.73817976481344 2.107875981482)
(1.73090233587236 1.4092586733496 -2.32366051656257)
(-1.53875561544961 0.491683090769329 2.00892378403227)
(-1.6350153192806 -0.89413224248682 -1.85554049839493)
(0.0439942908704925 -3.93445827204209 0.640952180588622)
(-2.61370556537101 0 0)
(-1.95526442579101 0 0)
(0 4.41321883280536 2.40679861325943)
(0 -6.18177888722619 2.54123141962323)
(0 0 0)
(-0.0920469256069291 0.191776738654455 1.98297469761923)
(3.16788445730252 3.03267278500248 -0.421814085064442)
(1.02517530991488 1.72250463490656 -0.851604875284072)
(0 0 0)
(2.01346123817701 1.7208224186041 -2.57034817490977)
(0 0 0)
(2.54769575501271 0 0)
(0 -1.3617445290128 -0.557651805545593)
(-2.78104128220201 3.86735765857041 2.1032548089573)
(0 -0.632749260980932 1.88512098803849)
(0 -0.0594570257205861 -2.75069909194465)
(0.501421079445539 0 0)
(0 0.0804329321526763 1.52531505295424)
(0 0.154438141677278 -3.71139851510178)
(0 -2.88214732985741 1.19486829332729)
(2.12756204951879 -2.49969361026453 0.770605593369828)
(0.458457164538588 -1.56531855941352 0.0902115374086217)
(1.12430900308214 2.53270640240214 -1.13188456876113)
(0 1.414893138545 -2.17099224808139)
(0.692634073317236 -1.31131456079275 0.869025140928174)
(0.752993112310262 -1.26967546259943 -2.68273538897603)
(-3.09133621443391 0.935231421495158 -4.86886437713835)
(-4.67057048744975 0 0)
(0 -0.129188577346806 -3.63659112712073)
(-3.02879056702672 -1.94330117649096 -1.07894356773992)
(0.797280409337963 0 0)
(-2.08022039785948 3.20260631729168 1.53006578103463)
(3.60186627498709 2.45648010242778 0.601983097419907)
(0.603195077479931 0 0)
(-2.21520751852676 -0.784816199716456 -1.86259542230984)
(0.739728027541392 1.1101598848366 -1.5906939382912)
(0 -0.431615243920436 -2.63793839149675)
(0 0 0)
(-2.72903595219299 0 0)
(1.30361068927917 -2.63157117154156 -1.35207239725952)
(0.974147182412895 0 0)
(0 4.2578396343253 -4.03951997247904)
(0 0.216155598672437 3.32222537913494)
(1.42956752356389 0 0)
(3.40692403933722 2.51813640403033 0.0577868806100802)
(0 0 0)
(0 0 0)
(-1.40049533029151 -1.83501745477833 -5.30289107260398)
(0 -1.52915838416068 -1.92094138188679)
(0 0 0)
(0.544388122508651 -1.41645115954451 2.652961773341)
(-0.238780051660807 0 0)
(0.552674484514687 2.6634944479478 1.02136436969075)
(-4.42299335696063 -1.54574417995153 0.503663439236788)
(0 0 0)
(1.22505469188387 -0.103708813984306 1.46807443695492)
(0 0 0)
(3.25975336439789 -2.37403871137676 -1.27154562292303)
(0 0 0)
(-1.2011890257984 -3.2444411476589 -0.437559894117225)
(1.06785831619281 3.03810221863349 1.37423540378432)
(-2.01135952964221 3.36053297335102 -0.943394200995124)
(-3.20964666934011 -1.12912959143236 1.65101599281833)
(-1.93865562652291 -0.517455863391838 -2.38421713508785)
(-2.45960160379221 -1.51255587027408 1.27237906320389)
(-1.47141032238153 0 0)
(4.13948306575117 0 0)
(-3.42489446717391 3.1655041296052 2.58926590668958)
(1.96183471564829 -2.41935731077685 -1.15945138123203)
(1.77454706159941 -3.25991236517047 -2.78276814156697)
(-3.51320711140744 -0.331419457339242 -1.46460631267124)
(0 1.6601944849735 -1.03488079836499)
(0 -2.34290291301469 1.96822890042489)
(-3.13405766661287 -2.57029957553291 1.42109702384054)
(3.51981712747707 0.225913000825458 -1.502427304303)
(0 3.93306173002045 -0.344631088330175)
(0 -0.449829889070424 1.98010377763787)
(0.537343043085001 -2.66367954590993 2.3094393717819)
(0 -0.777691604539737 2.96970362325818)
(1.950121770344 0 0)
(2.69274488420411 0.616610059045689 1.86831686433769)
(0 1.93286566512427 -0.611585728591365)
(-1.16822696522553 0 0)
(-0.423050738558471 -1.48491972789026 0.0413346419056913)
(0 -1.14812101201519 1.91567033983132)
(7.02547254860856 1.99585106049723 -0.368317761439782)
(-0.458552618301185 0 0)
(1.24291035089638 -1.5282846065106 -2.9769913405487)
(0 0 0)
(0.814721398085909 -1.93182113298247 -0.562796290520184)
(-0.150061236367155 2.98479980568002 3.06359886588243)
(1.84425748344305 -2.18788730891062 -1.15440276678562)
(-2.82364197185043 0.524537755310158 1.5310270188352)
(-1.04108621705308 1.82593977794946 -0.769150544594458)
(2.17247477713369 4.33411748952332 0.321697704544826)
(-1.57668183167292 0.727161906228525 1.4181554299988)
(-1.84751050279612 1.4291158237442 0.355778852102691)
(2.32739463866848 -1.66745160204025 3.49610278011687)
(0 -1.51167239293516 1.65801000514843)
(-1.20609336921211 1.39217447109047 -1.50383674948593)
(0 0.212625454259203 -2.02720313122605)
(0 0.870521212294605 -1.29492191887231)
(-1.57290250085068 0 0)
(-1.572733189512 -2.24381067959594 0.0708524921496993)
(-5.3463541544974 1.53905414412084 -3.41361485892837)
(0.923525708490739 -0.0567099921693841 -1.47542876391161)
(2.49698638259431 1.17949896732438 1.08067396328583)
(-1.03553179152684 -1.03855353782469 1.05588589567447)
(1.95473013971483 0 0)
(-1.46356378485783 -1.22658682295455 -0.911353913771474)
(-1.61256185282132 -2.02419766028247 -4.94733594729691)
(-1.56297339772084 0 0)
(-1.50391061941042 2.82527797553645 -1.28685985763187)
(-2.87647055092773 -1.0888762780436 1.99226750139882)
(0 -0.378173839340739 4.20479375192797)
(2.079792108898 -0.821166764715363 -1.74530476408958)
(1.94784588740969 0.00460408405808344 -2.49233612472057)
(1.77694528573606 0 0)
(2.2482511884353 0.602986005018113 1.90302737931908)
(-1.0290209696418 -0.698874520043881 1.30251360388232)
(1.70619894283102 2.0378827859095 -0.379327539715851)
(1.88147671571221 0.768021583847788 1.33172217705737)
(3.41145967582327 0 0)
(1.98070630462436 1.51629971598386 -0.00805727664603805)
(0 -3.3288316160155 7.06328460537673)
(-0.542796640106546 0 0)
(-3.31634932274692 -0.34808727158907 -2.22962814666077)
(-3.03704189992236 1.98602122548664 0.559766823071013)
(0 -1.88682220100531 -0.39177850807183)
(0 0.451788093779997 1.5014775757285)
(-1.95804164250396 -1.51351293375778 -1.72688156861056)
(0 0.292903020502041 -1.48864361189452)
(1.60746362467258 -0.769644092359071 1.29313736623548)
(-0.795607570330371 -1.16811977982452 -1.61220158458773)
(0 -0.514711562143989 -1.914979471219)
(0.156407032265328 0 0)
(1.6640332540408 -2.03725958824443 -2.91705903910437)
(2.6727148233278 -2.06992754371553 -2.42299884062048)
(1.64603736196845 0 0)
(0 -2.19242687355819 -1.53089562910538)
(1.46743200313289 -0.993320544745992 1.78811194015035)
(-2.86635639630834 -1.35774566362742 -0.842140485057309)
(-0.678828963425121 0 0)
(0 -0.22007489295343 -2.93638988788437)
(0.441173553875865 -1.4674348653551 2.21385072127573)
(0 -4.41541556507728 -4.18014399172301)
(-2.88294756930587 0 0)
(1.35534613724263 0 0)
(0 -1.45346075498991 -0.550365774392416)
(2.4795245097942 1.33914343982872 0.868568817397955)
(-1.08290801757551 -2.89112086047691 1.11514812963908)
(1.67600346264004 0 0)
(2.9052361198594 0 0)
(-0.0483446098684365 0 0)
(2.65929020589157 0 0)
(-0.636506960638306 -2.42302942040776 -0.434903991344783)
(1.02775348821878 -2.71665598682949 -3.11026624903296)
(2.04397893280225 0 0)
(0 -1.65700747285427 -1.14588849666818)
(0 0 0)
(3.57049352352478 0.0667995926324309 -2.31478731310724)
(-5.29011286491173 -0.36773802311123 -1.49307707553375)
(0 -1.36671246782868 -1.74405429268524)
(0.353501397567096 0.412023007697092 -3.49333295697426)
(-1.1359228028933 0 0)
(-1.11784722291408 -0.161492609165145 -1.6113210712178)
(1.84775430322579 0 0)
(1.65939144418436 1.93143165919034 0.21565183360554)
(-2.86881596159092 2.06544095645959 0.0931240821024006)
(1.85130184394006 1.9410260676848 1.08368300877648)
(-0.447627855762667 2.33831182430457 0.759339421417619)
(0 -2.50912340158625 -0.354189056959475)
(-1.82613926292125 -2.44302464550912 -0.421045759547632)
(0.679382430186965 0.282671426233983 -1.55888456672695)
(-0.464114841773877 0.851458474090968 1.27000347233025)
(-0.144202627331453 2.23936365672438 -0.259353776786036)
(1.33427523495385 1.90775707236497 -0.825203223672386)
(-1.24491884876939 -2.17124346648614 0.59284695992453)
(0 -1.46458387649162 0.389712557433959)
(-3.36859547139738 2.63298424294933 -0.82773565431474)
(-1.80500378365061 3.73367881538247 1.2271990915195)
(0 -0.300762204096105 -4.19820065358531)
(0 -3.04942800256048 -0.772230785960337)
(2.39557054149387 -1.4983936891319 3.40771509809232)
(-1.90890783910413 -2.69105786211117 2.85293949361116)
(1.17149165663219 0.322472135176096 2.95226800242431)
(-1.49880721476838 -1.76992975748573 -1.32314168572068)
(-1.17167575239507 -1.9768438595505 -0.34239698477879)
(0 -3.73752214237687 -2.12257626063167)
(2.24501902853032 -1.27596983885203 2.07292408450136)
(0 -0.871594988942641 -1.28049662627133)
(-0.993064821495616 3.10620624865974 2.66348479581958)
(0 0 0)
(-0.0620461329508243 2.38111096171024 -5.47485815148647)
(1.59695035235178 0.33127298035362 -3.21113685653131)
(0 -2.28407746588119 1.92630745907896)
(0 0 0)
(-2.46915685845405 2.43244487027812 -1.79964257286663)
(0 0 0)
(-0.39827030497274 0 0)
(0 -3.23166746128823 -1.00986758044896)
(0 -1.4966781992793 2.58724458460462)
(0 2.13675910120875 -3.70493509247379)
(-1.59896235803153 0 0)
(0 -2.28012352153218 -2.62009569327234)
(0 -1.83993003623091 1.93071982712398)
(3.76851073371137 2.46702913591057 -0.143916374224593)
(-2.51318646280877 0 0)
(1.50610482323298 -1.08706603619079 1.76787885751579)
(1.11725161817082 0 0)
(0 0.375238604937395 -2.18036816911818)
(-1.24787936924216 0 0)
(-0.474134806627148 -1.01650767890107 4.83113777611303)
(-1.60713350143598 5.02139710177868 4.53790581090469)
(-1.27055808201754 -1.58801702514061 2.86304780261604)
(0.344249013027558 0.626638874843869 1.88461362379937)
(0.315619859974415 1.53142265649949 -2.01575272429768)
(2.37477426325211 1.62043175147506 1.25920891400992)
(0.900603663177823 2.78924094957105 1.52592818392234)
(1.3787875310539 1.71892873989959 -1.58884823108067)
(0 0 0)
(-1.73695911089861 0 0)
(0.0707411134576841 3.18167686790357 -3.84534137520793)
(1.39614011237419 0 0)
(0 1.061697478788 -2.39540606428379)
(0 2.2487372262327 3.49568875668651)
(-1.6115969653187 -5.19999148618338 0.222387810504238)
(-1.7224062578754 2.2864246083616 -4.15738833691125)
(0 0 0)
(1.52349278608127 -3.32225233316937 -0.750264635040077)
(-2.67444721380402 -2.83558559866 -0.0939178812820207)
(-3.00581643194916 0 0)
(1.77987397349358 -0.212686893843976 -2.51822249059702)
(0 1.50506773719312 -0.137491384191462)
(-0.7719388944657 0.67853716848564 3.28575206977442)
(0 -0.584552520095369 1.9205057790886)
(-1.78936386214582 4.86986141272367 0.658661191903583)
(0 0 0)
(0 0 0)
(-0.850727728088658 -4.06244117870407 0.290090570647399)
(0 0 0)
(0 0 0)
(-2.11016743151646 0 0)
(-1.48985529104792 0.814515774506096 -3.20090049153051)
(-2.30577886065169 0 0)
(0.470802666401308 3.75780609937819 -2.07737328750258)
(0.458814898716305 0 0)
(-1.57587199104205 -2.86307552933464 -2.70400952865846)
(0 -2.5582153713107 -0.525754832318406)
(-1.78837791039933 -0.412538180378379 -1.88859450719049)
(0.674306143358019 -0.567949632191482 -3.49552020950675)
(-4.22777546822165 -1.81042005370869 -2.15426889898782)
(-1.4650959941097 -3.15413015117964 2.09275013143137)
(-2.23662676806507 -2.26713500805664 -1.01990564440055)
(1.33613313542663 -2.77459072729057 -3.10544448646264)
(1.69062244719631 -1.43241270943228 0.692980266567039)
(-1.79560806679396 -0.334875291723711 -2.43478885123627)
(2.45970469289561 0 0)
(-0.175587340487512 0 0)
(-0.0987477983081192 -0.985223360056649 -1.99357538743054)
(0 3.19001374160201 3.13384452353881)
(-1.72340966389118 4.23199037208123 -3.19341632850594)
(0 1.10734865542415 1.20267985720781)
(-2.89969852455918 0 0)
(0 -1.60856824197677 -1.90829448560949)
(0 1.08680605844839 1.12729838635317)
(-1.89748796081162 -2.43542851407487 -3.79817369615324)
(-1.6258518429537 2.33938412771041 -1.83020913925663)
(0 -1.54101673690517 0.0478827554744874)
(-1.10506335689415 1.8669510460799 0.548001524109034)
(1.12775783660327 0 0)
(-0.517017738570006 1.70468914738042 1.43875841665009)
(-2.00937212333832 -0.173555809572521 2.96207610500763)
(0.379185220136873 0 0)
(-0.658284741927496 1.79836226574103 2.70087515757465)
(1.74299065224731 0 0)
(4.33154846386644 -2.30048777207698 -1.51309254705396)
(4.29658850662671 0 0)
(-3.84568713164497 0 0)
(0.108073151826834 0 0)
(-3.28809091527402 -2.55878778364803 -4.86007629013753)
(-3.16735006177243 0 0)
(1.975164286445 -4.54720866003844 -2.29280734477471)
(0.0276341826394435 0 0)
(-0.404837987958794 0 0)
(-0.930572277615791 0 0)
(1.30884266150885 2.42617820549229 0.0940817465764419)
(-4.44895683421528 -2.29416854270648 -0.881258861503195)
(-1.36983151905151 0 0)
(-2.19559982617627 5.07110126398511 1.71782493853954)
(2.40386085307207 2.16974889130805 -3.09311782744818)
(-4.15641061183996 0.075209915897998 -2.44705965968894)
(0.562789727337434 2.37330270787872 -3.19155709146973)
(0.878666729245163 1.81303742461064 -0.715583209760627)
(-2.10217968653598 -1.63146676963051 -0.0973627478493393)
(0 -2.77897845335641 1.48347933838526)
(0 -1.82949185917688 -1.65164226688975)
(-0.524735581869514 1.8161837918032 1.45197570763086)
(0 0 0)
(0 0 0)
(-3.56660216735252 0 0)
(0 -2.40522223190681 -0.728255727257623)
(0 3.64719897797479 0.432076607932823)
(4.45763876141062 -1.58508800056594 -1.10128955243193)
(-0.989150620787938 1.52121050661742 -0.328303990163272)
(0 1.00074012067626 1.22194308831257)
(2.75034444704406 2.87893867475339 -2.71881641433925)
(2.63777176281428 -3.32525439723144 -0.87452833670316)
(-0.050881207246515 -1.15776429093596 -5.02632791786817)
(-0.140605310075612 1.08765813941158 1.74241637485705)
(2.94014573574516 1.91344464297015 -0.768442219684997)
(0 1.58250573463306 1.15245201882723)
(1.85379537445713 -1.92520136929695 -0.587696712750402)
(-2.45467265816051 0 0)
(1.92234420178687 -2.41569937298943 -4.74081427112656)
(2.61011504634844 -0.868251468190272 -3.5136398993816)
(3.46621964916244 4.17146110814928 2.25448755219097)
(1.88629330795736 1.70881532445782 -1.00443044080727)
(0 1.25806940111586 -0.916565718299922)
(1.59937556987286 1.90419592402854 -2.07952437909931)
(0 2.43435065119378 0.371860832025552)
(1.31844912773361 0 0)
(-0.264401262617524 5.04742999438324 -2.41115486219271)
(0 -2.67579110167587 0.139290368207134)
(-4.66364269905516 0 0)
(1.2370363063447 2.01244988376945 2.68225192199218)
(-3.47695113835757 0 0)
(-2.94056757419205 0 0)
(1.57655467907939 2.72367372928247 3.23847717212806)
(-3.88296169042914 -2.45691792429156 0.335266975784068)
(0 0.721702554639409 -1.39995475199776)
(1.50973886251955 -0.939176780129484 1.30231617277427)
(0 0 0)
(1.47679357271822 -0.951159780621679 2.58070476677409)
(0.0471174718283443 0 0)
(1.5122520520503 0.790424827381758 -1.33657570634237)
(-1.46955527753717 -1.70610018025668 -1.8603499333691)
(1.34545463484773 0 0)
(0 3.13310759208762 -1.04952791617346)
(1.00178385484342 0.192706313180618 -2.58487807192335)
(-2.72151741011846 3.10576641040009 -0.929215708477814)
(-2.5483813998182 -0.417733703983969 1.50191676303563)
(0 -2.50449117501184 2.15242730726258)
(-4.624738739314 0.268027562712506 4.09736169575336)
(0 0.826157093722503 5.12764316267304)
(0 1.3139956588039 -0.955055733535636)
(0 0 0)
(4.07947177410916 0 0)
(-1.06798375619072 -1.96175070355788 1.73879898329658)
(2.00810058523802 -2.73211837712585 -0.096361354569747)
(0 1.49858481346503 -2.17946591267788)
(0 1.63423123363827 -1.53392387346428)
(0 0 0)
(0 -4.02932291956798 1.88195937962849)
(2.25504382187563 0.350612872083195 -2.94502434168657)
(0 0 0)
(1.07589256068201 0.403413846880967 -4.01910259483742)
(-0.904919622905532 -2.93683174182728 -2.21376408462245)
(0 1.69995970361048 2.50131240216244)
(3.11163367294338 -1.61926788604251 -0.151030400424821)
(0.499846526904584 4.30285027358652 1.16125018098735)
(-0.87685484967062 -3.10092708416233 -2.17853438653767)
(1.39113333364976 -1.41831131599304 0.436516589937341)
(0 -0.593902392958345 1.83309140756594)
(0 0 0)
(-0.653894599852886 0.585548185846138 1.47512897546121)
(-0.104520811748552 0 0)
(-0.93918432097673 1.67633730435499 1.84301857732928)
(-0.490033383750081 0 0)
(1.80676767591118 0 0)
(0 -5.86360180892355 0.468383884785843)
(2.06704478061663 -0.915730323142022 -1.83822632604256)
(2.77024355446617 2.53429050505819 3.62593979601167)
(-3.51477617886403 1.39461081764387 -0.647900858101082)
(-1.49873784728912 0 0)
(-0.369690913849628 1.67311662942597 -1.1050946865168)
(0.900933867984751 2.56124836530279 -0.811982366566051)
(1.65526205349897 0.367720734705486 -2.20158735898144)
(-0.732460238143937 -1.91370323319194 1.95475394410628)
(-1.03706962090403 -1.74588603195205 1.12380928136337)
(0 0.169586529065697 1.9212977399022)
(-2.26762299278745 2.04857342844523 2.35388648669407)
(0.0991659811191756 0 0)
(0 0 0)
(2.17571827594854 -4.03161789462171 -0.360606155164875)
(0 0 0)
(-4.36209732504561 -1.35717530648698 -0.711628797258681)
(0 -2.25207392075763 -0.620307931030842)
(-0.416531694625654 1.04479364703086 1.79718158760854)
(-0.397715796955654 -1.88273346257595 -1.20755536305569)
(0.600732506767454 0 0)
(-1.00061769804394 -2.10098416695576 0.974219274893882)
(-4.53273538091124 0 0)
(-2.37471720201694 1.37918756959119 0.857781927684117)
(1.4302039802743 -1.18123217466638 3.02512990467082)
(1.37648688164625 1.03469225312913 -1.072107404453)
(-3.99221665207926 -1.43860916224883 0.304803499264669)
(0 -1.46798009045597 0.481155540197507)
(2.82223899972772 1.64988698652091 1.63219552063297)
(-1.92861343237415 0.503000935498161 -3.24837734884821)
(0.908289078034017 -1.93923762652317 1.26848951608177)
(2.44320985527472 2.21961253478698 -0.210234191832127)
(0 0 0)
(-1.7533897258618 0 0)
(3.95974648954285 0 0)
(0 1.21818771593003 3.36840375528865)
(-1.79026708109226 1.4096095065933 -1.73159507318629)
(0 -2.07040709636002 -0.157855852339071)
(0 0 0)
(-1.01160991577074 0.853733145435398 -2.29023184408397)
(0 0.76389163408294 -1.42829113232603)
(0 -1.47835458706301 -2.31633503463768)
(-2.32166923763418 -1.43725649425174 -3.73758609370144)
(0 1.48498398325058 2.53604311451915)
(0 0.379713810347129 -1.55941090968291)
(-0.218206940389852 -2.20424712514498 -1.62337739748106)
(-4.47314415653502 0 0)
(-0.104957020865967 0 0)
(4.22724377316107 4.33037361887136 -0.51944844151189)
(0 2.42686504002928 -2.26827606950199)
(0 -2.56862757710868 0.58486437356924)
(0 -3.92663003671879 -1.8110291489989)
(-1.49905531377635 0 0)
(0 -1.33559688395524 -1.51660995275885)
(-3.24464518505441 0 0)
(-1.13456384858414 -1.55369550928467 -0.290592350361944)
(1.33648148286883 0 0)
(0 1.81735951867948 -1.68609619159083)
(-0.490065142580522 0 0)
(0 0 0)
(-0.142749907810408 0 0)
(1.50493380508868 0.326892322408361 -1.99374410013058)
(5.07063471861428 0.75951335533486 3.98799996846083)
(0 0 0)
(-0.128301317745018 1.96894230303747 1.20871958767329)
(0 0 0)
(0 -0.853444560924016 2.45586691944554)
(-0.642475812594242 1.96183006058395 2.15452461418302)
(0.271710100360624 -1.56914574553874 1.20649620199307)
(2.31541336601074 0 0)
(2.2403930407179 -1.44623286827169 1.44265370566171)
(-1.96737701032926 0 0)
(0.248226420782932 0 0)
(2.0452405316053 -3.11155778117256 -1.72372353370699)
(-3.94280170125511 -1.38190361763851 -2.95085188657823)
(-4.60355394424924 0.966612909659292 -1.32142249789316)
(4.47600190533259 0 0)
(-2.1987798811912 0.414826582856986 4.20123925643257)
(2.10647796932035 0 0)
(1.11518265501969 4.92339163667526 -0.383532254808511)
(1.77022592760813 -3.20360606341088 -0.218273298455335)
(0 0 0)
(0 -0.436379674360378 -2.82426896647478)
(-2.15418234697723 1.26331075538065 -1.45029065853688)
(-4.15000974925435 0 0)
(-1.07753529461046 1.54156474150165 0.241738498306388)
(2.52329951704095 2.62042590888868 2.48718048337308)
(0.881656471599671 1.62369241780383 -1.02973311350155)
(-2.57651794283303 -1.53157747613884 -0.120021832921406)
(-3.22512908567545 0 0)
(0 2.06148888929166 2.40775684956128)
(2.75879444500541 0 0)
(0.519107659548464 0 0)
(3.1481934484763 2.19609287280338 -0.748580149548668)
(0 -0.0577904337378563 -1.99633988583423)
(0.702260515132178 0.412615703073125 2.95453271573439)
(0.811719035761638 0 0)
(-2.80111370334792 -3.8211674550964 -1.45867636359242)
(-0.0954476225517452 0 0)
(-2.19650327730174 3.33764987889937 -0.852800950726272)
(-3.43919646071844 -3.06202950299149 1.31335645168146)
(0 0 0)
(0 0.339638327761185 -2.2957750874319)
(-2.65343159728198 -1.5082247494829 -0.259060847147353)
(-3.66702718698011 0 0)
(-1.52290228497804 3.42130049951552 -1.59085411180352)
(1.77828280966947 0 0)
(3.2105550152691 0 0)
(0 -3.05425502468915 -0.976338958189689)
(1.90095516460905 0.790186943878199 -1.4168748386833)
(-2.42063704366236 2.4946396665949 1.10284920571002)
(2.04104820553231 0 0)
(-3.49306079325751 0 0)
(2.36465687369189 1.25424607247264 -0.956816726365694)
(-1.42266798767122 2.5970760886014 -0.654943986544086)
(0 0 0)
(0 -1.49075925965455 -2.49820843609637)
(0 0.402874575370064 3.0905420298643)
(0.441955155333298 -2.70701438940191 1.56074116290177)
(-0.0837812437826236 -0.810031706859778 -3.76611470601189)
(-0.896075728820264 0 0)
(1.44701090243341 4.72564436929613 -2.64243153463183)
(-2.49722342014396 -0.49809505945095 -1.52425518164671)
(0.302561806590565 -0.754709038484315 1.27675534422794)
(1.16578390344396 2.44699660107452 2.04144082872588)
(-2.81157594211757 0 0)
(2.19072922152111 -3.73244063974868 1.23894859116271)
(-1.41583521453668 2.70962124534121 1.12331583415722)