/*--------------------------------*- C++ -*----------------------------------*\
| =========                 |                                                 |
| \\      /  F ield         | OpenFOAM: The Open Source CFD Toolbox           |
|  \\    /   O peration     | Version:  2.4.0-MNF                             |
|   \\  /    A nd           | Web:      www.OpenFOAM.org                      |
|    \\/     M anipulation  |                                                 |
\*---------------------------------------------------------------------------*/
FoamFile
{
    version     2.0;
    format      ascii;
    class       vectorField;
    location    "0/lagrangian/polyMoleculeCloud";
    object      v;
}
// * * * * * * * * * * * * * * * * * * * * * * * * * * * * * * * * * * * * * //


4298
(
(0 -3.4546366457128 4.2661661920332)
(0 0 0)
(0 0 0)
(2.71313603120069 2.45314852159006 -0.966812745493714)
(1.17196759872687 1.50181208568069 1.36564075126591)
(-2.37279429616405 -3.84463776171955 -1.19672913494198)
(0.344253097080702 1.7586102311494 -2.24098697088553)
(0 3.62092236821673 3.65487334850289)
(-1.60997123399179 0 0)
(-2.80950861663549 -0.743184675795911 1.83335585695686)
(-3.67764432223703 1.41009177799405 -3.89688669574761)
(0 0.126023139786078 -2.62657213332995)
(0 0 0)
(-1.07242870169877 2.26347373543791 3.46768416751601)
(0 0 0)
(0 0.363758858686725 2.61591171749769)
(0 0 0)
(-3.18894902673286 0.942573621450754 -2.31660515885572)
(-3.68658177331723 0 0)
(2.92499776428391 -0.734118492964491 1.34947138822648)
(0 3.40080259537395 -1.25028800825496)
(0.036852272824853 -1.06865676009811 -4.03662329851889)
(0 -1.2593161320776 -4.00039800482632)
(0 0.430973640654023 -1.90160864989741)
(4.35573941492074 -3.35451388502651 -0.643409798102237)
(-1.31345741575703 -1.42523053425768 -3.54377803762647)
(-1.27999108056464 1.47572095748518 -0.192179887367512)
(0 0.353558233916996 1.59725226626415)
(0 1.60646332355862 -2.67730428886005)
(2.8179026826712 -2.13997491902614 -2.43292549564541)
(-0.235811339348414 3.99340139031838 0.116547752998536)
(0 -1.55416154785531 -1.22929108103899)
(0.651636602501706 0 0)
(-5.23583538987741 2.27176919056815 0.8638635052629)
(5.31768117458033 4.01745055493139 2.63813512549653)
(-1.51952568966652 -1.76409699866014 -1.37439876918851)
(-2.16314614911341 1.21103306280541 -0.891333354460087)
(0.787575880802636 0.772412132232429 -3.2763865603621)
(-3.06906501268247 -1.23232713643941 2.3531976033178)
(-2.29086793508265 0.0952255532697524 -1.63306554183005)
(1.90639858369722 0 0)
(-0.0336713822894024 0.849109399926416 -1.39671115007085)
(0.0700104273481111 -0.122622922406356 4.00809681077797)
(1.39393302155609 0 0)
(0 -0.395059744376331 -1.46644907553098)
(0.835751376654803 3.95230222592745 -1.97993441972224)
(1.1100005257364 3.62142995978293 1.55663466236247)
(0.534077042178325 -1.54956523676648 -0.2710327681342)
(-3.36454984343881 -3.7721721622432 -0.342211028326743)
(-1.61894787048052 1.48569969877938 1.42403937490003)
(1.87436984939809 0.109710577926399 -1.46943262926769)
(0.178690432132279 3.50288622524919 -3.02292090332746)
(-1.71124240343538 0 0)
(-1.24064478578276 1.96459002430791 0.194074537524212)
(0 3.97219915744381 0.390331340275212)
(-1.94318366749217 0 0)
(1.44525288568284 2.32192781225703 0.703940569841061)
(-0.265393398605545 0 0)
(1.62101816613294 0 0)
(-1.67403582704662 0 0)
(0.0803122516641436 0 0)
(0 1.30785034448625 -0.874441256129564)
(2.92579866891602 0 0)
(-3.44908195371689 1.23207134079831 0.845566652630086)
(-1.69178841055528 3.24782083992889 -4.18316145364872)
(-3.06438962480426 0 0)
(0 1.38818735062381 0.754981779949317)
(0 0 0)
(1.305955177309 -1.8740696101879 4.7339549143598)
(1.40557968720087 -0.507968176861186 2.21737937687174)
(0.0563176413707922 0 0)
(-1.92961516702199 2.96151624989121 0.962886646877034)
(1.88212560190015 -0.955277501382816 1.21204371184227)
(2.43785292022186 0 0)
(0.800471773593181 -2.272124619562 -2.95787749565995)
(-1.54135547571329 0 0)
(-0.662930891443872 -1.44704256968351 -0.385331393016475)
(0 2.01285104337218 0.913553127071269)
(0 0 0)
(0.0589340951391461 0 0)
(-4.73067449463048 0 0)
(-0.50778301643663 0 0)
(0.0322773807280498 4.05413181053787 -1.07737145254218)
(1.3821118161566 -0.595995621102819 4.51015569287982)
(0 1.91387895575203 -2.37475494847777)
(-4.42594192888002 -0.74319602458348 -1.87103238149323)
(4.07796535558266 -0.131937980687627 -3.65118626782668)
(0 3.0258977180196 0.28974541029193)
(6.12481368357252 0 0)
(1.7296715205008 -3.88105746803865 -0.457068594958205)
(2.78666156907021 1.68523067486529 -0.964954904710635)
(-2.82335762888175 -2.11612345510285 1.9362618583408)
(3.02452159785545 0.861038450815967 1.77030448870629)
(-1.56539824157351 0 0)
(-2.5183696961821 0.884178782827733 -1.28902916308777)
(-2.30967702692159 2.57634823776179 0.31748778674452)
(0.395814924331059 -0.948082525166778 -1.23378117614457)
(-1.91484779041693 -3.41780516979349 -0.490943618284963)
(0.246844171430902 1.57027061343026 -2.53251280811885)
(0 1.42238387701024 -2.28356088023775)
(0.360773634432355 0 0)
(0 0 0)
(4.60201453836073 3.09002530067933 0.292913230707929)
(-1.42687918993915 4.25967504757546 1.20567007575438)
(1.0856965049289 1.64768464871954 -3.41060227891363)
(-0.377934784356973 2.80230417388312 0.0820892660485447)
(0 3.05862930182748 -1.20561842991823)
(0 0 0)
(0 -0.105640824176337 2.42610908675894)
(0 -1.19302119123996 1.64324410429323)
(2.15098199877517 4.5590680160138 -1.01809529073732)
(0 -2.58410089892464 0.0189059141548638)
(0 2.28091714221219 -1.55749190156256)
(3.11668587971593 4.61158481382369 0.708378347114531)
(0 -1.00192932002643 -2.48593623064243)
(-0.237921703950101 -0.992296009767706 -4.19335869223887)
(0 1.63545090905112 1.66950652422674)
(-0.908804746630462 -1.18872377164637 -1.06236815243722)
(-3.93272063059667 2.92219079532813 -0.934418565192481)
(2.73056077988267 0 0)
(-3.84190665186759 0 0)
(1.30827944208411 0.442933097391268 2.43401883302506)
(-0.075733303533911 -1.83618238915498 0.584965239914311)
(1.74508351973845 0 0)
(0 -1.43772796645168 -0.622457912847669)
(0.649403631179241 2.44523253530371 2.64418943514179)
(0 0.967352545009643 -1.29177973290143)
(0 -2.47696634568205 1.51941959250244)
(0 0.293915856004434 1.55652991562989)
(0 3.26639043662982 0.721938741680737)
(0 -0.114209416599837 -2.46226440221058)
(0 0 0)
(-0.976591954814022 -0.167136885480927 -2.81497635871549)
(1.23025254358634 0 0)
(2.23556632527782 0 0)
(1.04358767732693 1.7787132923497 -1.35566932072657)
(0 0.343885164104739 -2.21841728071644)
(2.04547488356685 2.2217762710542 0.499936890399674)
(-2.37032581624986 -1.57836257638038 -0.207687174922659)
(0 1.19743560371514 -2.00263416357553)
(-3.63773287308343 2.23713327324332 -1.5479543384883)
(-0.189623152924595 0.0643210411412446 1.55261552881326)
(0 1.39578208332396 0.623344563658901)
(-3.22145201215496 1.56357653385655 0.151364663538524)
(1.918480440885 1.95258021728591 -0.603299581815654)
(1.41169687768276 2.51813744222808 3.08659191112873)
(0.116303445625662 -1.71068262731241 3.47991965798409)
(-0.334677547049668 -2.60984741618916 2.84059890605405)
(0 -0.982793353748116 2.84489748854774)
(0 2.15022364372263 -2.84286762336491)
(1.10963387324399 1.96077227864336 -1.2905171180264)
(-1.59535578671209 0 0)
(-4.16841521926325 0 0)
(1.1907486548334 -1.69534142723794 3.40375820756527)
(-3.06681236420484 3.19008734280907 -1.81483403348762)
(0.158898610184078 0 0)
(-1.75010837823112 0.937639416354039 3.10375781378304)
(-1.83010376214335 -1.47070951330694 2.95898067764401)
(0 1.52343300481354 -2.03887092393908)
(0.607762566600491 0 0)
(-1.77097492674811 -0.664861102601611 -1.35137422913979)
(0 -0.245445718082067 1.91030337210785)
(-2.52133038416165 0 0)
(0 -2.31000603902643 1.80890844766172)
(1.34120238694968 1.52651833704743 0.235151273788731)
(4.91452425629711 -3.01713269373254 -1.22890410248566)
(1.90206015738507 0 0)
(3.49357697804017 0 0)
(-1.35341395929043 1.59279207490402 -0.354431691908467)
(0 -0.758934314588347 2.96459652870528)
(0 0 0)
(-1.49263286995681 -1.25399671889039 -1.52105349397777)
(-3.30312096229824 -0.363263446354706 2.00262336274022)
(-2.84481045547659 0 0)
(-1.69945767254607 3.22182658661873 1.44905588765052)
(0 1.55040767601846 1.18328325287896)
(3.59707862793882 0 0)
(0 -0.289672133036689 3.39911895158862)
(-3.76953707716272 -0.618872389733202 -1.85085657032433)
(0 -0.139443676194753 2.0103374449973)
(1.4113235562329 -0.00524985598649923 -1.47958100413984)
(0.14911258108025 -2.94600861292937 4.35637881924175)
(-1.66461826418675 -2.48427527310698 0.060007087172284)
(0 0 0)
(-5.38959984927707 1.24760048206755 1.87488533383454)
(1.62967324494269 -1.50129138146695 0.400100112827541)
(0.80906823467109 1.30670976183632 1.82847190121846)
(0 -4.09609307531254 2.86325009419915)
(2.02021367485909 -0.669509793344566 3.09548087469239)
(1.31500003628732 0 0)
(-1.89023632265152 1.40548903481049 -0.687644092104942)
(2.67806241241135 -2.18747487889088 -2.45734367932482)
(-0.603957464731433 -4.16696283170921 0.759448821325545)
(-1.53818693785135 0 0)
(-0.870065201706387 0.453501394805284 1.95191528016157)
(2.08077595583532 1.29812266905734 0.892113821254701)
(1.78124585813032 -1.9338949002541 -0.745405876915028)
(0 -3.29611628391319 2.8915422984944)
(0 -0.570811369814404 1.53133047665742)
(1.41721298557018 0 0)
(-1.53437146166426 -3.28424398008276 -2.98971269095899)
(0 1.21766354516689 0.932252529997549)
(1.38085770874289 -2.2287067257538 1.16507978876456)
(-0.526135221139291 -1.70551340117645 1.51920771754603)
(-0.663515503625679 -2.96002643783765 1.1615207055643)
(-1.35930690298833 0 0)
(0 -2.98991111096842 -0.0720885629157026)
(0 -1.39080926706166 -4.49811270921509)
(0 0 0)
(1.4098558028156 0.567265383775575 3.15063509237546)
(1.16229974740451 2.79858176749837 -2.93850654818959)
(0 -0.152821539484598 -3.22719408676098)
(2.52649096401321 -4.21295639508129 -1.74860646936262)
(3.55895437559508 -0.726225455743396 -1.29067991949307)
(1.52182321875997 -1.19633763778168 1.05959186498725)
(0.713079929253344 -0.147401786924204 -3.59239397945933)
(-4.50670147468446 0.495241316219501 3.59652177619835)
(-4.69729292585014 -0.236511326396351 -1.60766603362214)
(1.69832018976824 0 0)
(0 0.42812758823918 1.48021278782048)
(-1.46136033428901 -1.83402447398201 -0.972061364247739)
(2.47484638532828 1.09083380586897 2.16076332852676)
(-5.08687185651002 0 0)
(0 -1.63720026104056 -4.40143373404137)
(-0.282725520366966 0 0)
(-0.876880672181778 1.51565114954705 0.181039012568426)
(2.55720804043189 2.38629303976995 -2.10745865646513)
(0 0 0)
(1.48349860588639 0 0)
(-1.97777602744299 1.44869496550623 5.52716918542963)
(-0.744123284826694 2.29137890007465 2.00854402206397)
(0 1.15833389127828 -2.48486756832709)
(1.80250765007889 0 0)
(1.16249823762332 2.38330677203571 -0.453640299383534)
(1.54492337683912 0 0)
(0 0 0)
(2.42950840017036 3.78614918836023 0.988768019031033)
(0 0 0)
(3.09507425003785 0 0)
(0.340187340889097 1.47237680779776 -0.212880053096608)
(2.97167978709712 -2.01712488915111 -0.13462677473605)
(-2.52130817495008 2.28780127282601 -0.325414931924477)
(-1.63321556237424 0 0)
(-1.64171845992978 2.20009680521085 0.418049556545102)
(-1.33765485111068 0 0)
(-2.69193030247429 -0.0499701401867776 -4.06530011323265)
(1.94615562736836 -4.76902957552856 1.98884445612466)
(0 0 0)
(0.759260724019566 3.27002297552529 0.191195162633912)
(0.652512995474816 -3.17392524907646 0.663589867524624)
(-2.86759211568792 0.918701763189756 1.32021105993348)
(-6.32021372209244 0.731496156281108 3.50457012705895)
(0 0 0)
(-2.23242674350972 0 0)
(-3.0286715880365 -2.27420499258045 -2.04269243839746)
(1.09379882482512 0 0)
(-2.31606546963999 1.68900998155594 -0.98573563880246)
(-1.40522954713348 -1.85774764825887 -0.515822942195704)
(-1.45925675099645 -1.75704182847399 3.10832065450823)
(-3.02226535368654 -0.00350215909618285 -2.74003934567849)
(-4.63341837194015 -0.642404808409495 -1.89080577268212)
(0.614571114246614 3.45881214502959 -0.455742478974983)
(2.60254922633115 0 0)
(-4.22686094951367 -2.23378847795049 -0.0753473064274789)
(1.60659830975838 0.453528698717534 -1.40390799272196)
(0.681208320233305 -0.703726787983949 3.86428648921634)
(1.31732026035786 -2.96737792571628 1.84014079207493)
(-0.057738152362658 0.228546510205682 3.92509938307831)
(-1.86673016260828 0.344528193014193 2.49186991946657)
(-1.6817160446223 0 0)
(0.438514081643308 -1.70287716586118 2.08327707146468)
(2.16530118531147 -1.72950785382188 1.43221657961917)
(0 -1.47790927314281 2.28059302942642)
(1.79643410385746 -2.2027725548387 0.402011890419098)
(-1.58131120850312 -1.45512687419222 1.34792985154184)
(1.79651613751618 0 0)
(0 -0.0522304329393177 -1.54575403818935)
(0 -3.88306735308754 -1.66818781348481)
(0 2.36046043150649 -1.86803521835988)
(0 0 0)
(1.70772920634303 0 0)
(2.47350004262971 2.87184259595807 0.590040852120512)
(0.333895166094823 0 0)
(0 0.325847546366376 3.00620767811606)
(0 0 0)
(-1.51364433118015 0 0)
(0 0 0)
(-1.92928599223992 0.115036917699962 -2.32482789838682)
(-0.439805051153261 -3.09216620412149 1.12050740790159)
(-2.22487255346839 1.51042673475942 1.62698947363144)
(-1.9150175083246 -1.42830252522991 1.49060911722641)
(0.95626336886458 0 0)
(2.82124907811649 0 0)
(0.490424011812231 -3.57462499589339 0.538059951822877)
(0 3.90523256064953 3.41745682052069)
(1.57221103361014 3.05560332147445 1.0436606905124)
(-3.57156867399141 0 0)
(-1.8795145736078 1.85495022351436 -0.555590124684507)
(0 -4.89553382973012 -1.08403019326377)
(-1.51854219177448 0 0)
(-1.3336117757983 -0.22475964591597 2.83038051605824)
(0 2.3118370908547 -2.72009832495364)
(-0.605361694306069 0 0)
(0.482269161937589 0.676877936650922 -1.45157452212398)
(4.20608886983254 0 0)
(2.66881709463917 -3.19811045233595 -1.96153622941514)
(0 0 0)
(0.624493434286717 0 0)
(-1.25787997434367 3.04240338950789 0.141290882308978)
(0 -1.61996489382297 4.28922875289989)
(1.87257770358951 0 0)
(0 0.688322501660157 1.39468902368813)
(0 -0.808686948709992 1.27234442667704)
(-2.27717043882613 0.995735739055227 1.10297272364014)
(1.80327688305233 1.94071107843356 1.77475651439561)
(0 0 0)
(1.58758830537245 -0.295124435894472 -1.49502751276397)
(1.30839012125119 0 0)
(0.700668609171051 1.12074077931792 2.0074310078949)
(0 4.60232606955392 -1.08282946728753)
(-3.13479707969053 -1.38989691585126 -0.688548307055951)
(0 -1.52985480301559 -0.39868176971059)
(1.91137713491549 0 0)
(2.26151266572375 5.70067992339838 -0.541772798467104)
(3.94100313262645 -0.298317121372063 2.04330376031546)
(2.89595946282434 -0.2984836582359 1.50065028750427)
(0 0 0)
(4.22275724687527 -1.48772884511581 0.632383306846813)
(0 -2.17659241092173 -0.834656968389155)
(-1.53467322486626 3.06009541409722 1.74338417800493)
(1.37117478416415 -0.947185212959844 -2.10684607048764)
(2.36463140316882 0 0)
(-1.82353794280991 -0.366793435650155 1.49684075421513)
(0 -2.23188542239949 0.733489337666004)
(0 -1.58216355176621 0.169878745379636)
(0 -1.24158784641642 0.995599114805655)
(-2.94948070096407 -1.62931993011119 -0.101449014079596)
(-4.14052089451881 -0.320257595477448 -2.03622348892814)
(0.867737553928704 -1.47305447253944 -1.78524593700586)
(0.483537442965061 -1.9925570501826 1.70745358001784)
(-1.30201229204276 0 0)
(3.13044105335633 -2.02831028064567 -0.889708022391873)
(-3.13536088632714 -2.42633794948094 -2.51637611332893)
(0 -2.72187773249231 0.46376212224613)
(0 -5.3155121283619 0.374128065620693)
(0.912140673466928 1.30757527423478 1.94753137016664)
(-0.497277611777525 0 0)
(1.86976181939517 -3.6265497392629 -0.0873361884233986)
(-2.91430794774868 -0.327235665305499 2.65471798120716)
(4.15116412451803 1.92828316607155 2.60846697169667)
(2.88024959176731 0 0)
(-0.700483399960588 0 0)
(0.3220743088495 0 0)
(0 0 0)
(1.77208188061092 0 0)
(3.55041961569034 -4.55393218224103 0.900441741995991)
(0 -0.399465484413316 -1.53290963862059)
(0 0 0)
(0 -2.28378633640103 -1.25824775427023)
(1.78772992949009 0 0)
(0 1.35962263624334 3.52034173376858)
(0 0.4338090693533 -2.90262941650762)
(-4.59314773159032 0 0)
(-4.28704471832627 -3.45182648094194 -0.720202780131963)
(4.4677485390274 -2.61007874859996 -1.14275271069819)
(0.182933402601921 2.11231090234075 -2.55673734103831)
(-1.05924158762563 -1.52760282277211 0.281517006242331)
(-0.81216149302825 0.040987298624041 1.95422314276195)
(0 -0.909315207889446 2.06354153354892)
(0 -0.830095766358022 -1.2274979144358)
(-1.73582837529358 0 0)
(-0.0193040789944314 0 0)
(2.33085286555249 -3.3515278806467 -0.181070797757996)
(2.62921336232725 3.6611550596831 -0.140141237784391)
(-2.72517476235814 0.024762122233499 1.50979026693655)
(0 0 0)
(0.569917847093392 2.85153221507234 -1.98461478874934)
(1.75126095479072 2.72390848638093 0.279766662595642)
(0 -2.20065993803684 2.09890758450476)
(-2.28509983611099 -3.69766781747021 -2.10254239147473)
(-2.00825792102909 -3.16301222474874 -1.17325173265149)
(-1.21831838428335 0 0)
(0 0.183757267850843 -1.47760932991134)
(-1.61827838611839 -3.31103392905049 -2.50375662055506)
(2.58313955507891 -1.31911496054122 0.92173256577877)
(3.92359917742136 -0.254065042242759 -2.0621236187502)
(0 -1.79419175338598 1.69908454921311)
(-1.08632233932391 1.0990141410747 -1.04212129273192)
(-0.525073583157564 0 0)
(-1.63152374007148 -1.58440553097293 -2.83062385472887)
(0 -1.32836812641744 -0.870683962678491)
(0 -2.58599554156676 0.0254742902933631)
(1.55570402840165 0.624470421560953 3.34827233849059)
(-0.880891010720289 -2.45569720618095 -0.945148825219229)
(-2.06319002747777 0 0)
(-4.42599437691706 0 0)
(-1.35421377386184 -0.716829453118507 -2.1107093285037)
(-1.74669045711437 -1.94242511364262 1.07005390088351)
(0 0 0)
(0 0.731324924496768 -1.33932854189039)
(2.66667316817088 -0.979550851115821 -3.21503166218112)
(-3.12784228762248 0 0)
(-0.144649979475527 -1.58401853949354 -0.253155065263538)
(-2.21971691176692 0 0)
(0 -3.62053706394433 -0.597258824404932)
(0 0 0)
(0.845955890022341 -0.515794189805744 -1.42636095273614)
(1.60997681051539 3.30597835909516 -0.614870692828813)
(-2.65747770936682 1.88964924189693 -3.18369218634138)
(0 -0.927531094582842 2.02403897181008)
(-1.34979255347574 0.509800343525382 -4.38017525782747)
(0 1.25104438207853 -3.25891256132811)
(2.1713875415272 0 0)
(0.649354166267956 0 0)
(0.121401848777907 -2.49805410175576 2.16498182463445)
(0.726232901593831 3.26339513940574 3.6662442977136)
(-1.93708462119303 1.49209320549043 3.51303281360056)
(-0.378584425906395 1.79815639621858 -0.744706252839689)
(-1.26538406780244 0.237103036388036 -2.4341677902254)
(0 0.975648982770742 -1.31354819711898)
(-1.60487980781438 1.6626155928495 -1.09675766953)
(-0.722243425486445 0.423391709374526 -1.94809687537031)
(-0.136947206878092 0.811195121323175 -1.37006514261484)
(-2.48745385676945 0 0)
(2.06364350082766 -0.615782034580893 -1.37363648210798)
(2.2282213595221 0 0)
(-1.10418760592439 0 0)
(2.94194171518725 -5.78095956032078 -1.41305248840296)
(2.26939603393637 -0.936709925798035 -4.107475806741)
(-3.13828678954904 1.89202929824765 1.5247544780064)
(0 1.01286791458557 -2.80297169125411)
(1.53301187327234 0 0)
(-0.762289355800919 -2.02986084657978 -3.30948977965702)
(-1.10703040822385 -2.44094476041179 -1.60127700238313)
(-1.35021142137899 -0.882648601241709 1.27221427984793)
(5.00375726200738 2.41482186625869 -0.564787192812837)
(0 0 0)
(1.70026492672518 0 0)
(1.24450856376425 -0.063280238785917 -2.22148059306708)
(-1.6268009624721 0.80007280565769 -1.91208950893181)
(0 -2.17117151831787 0.638488790511203)
(0.155456771425711 0 0)
(2.25722688190895 -0.130870986906907 -3.40033151112712)
(1.40308116957896 0 0)
(0.823835690608595 0 0)
(1.44065665955059 0.421042365555552 -2.22583127121385)
(0 0 0)
(1.54593921558923 -1.11253289633186 -1.64960545462563)
(-1.43587428067859 -1.29219985643034 -1.53161896952843)
(2.66911239816044 2.93299276096677 0.772333346877171)
(-2.97098890080272 0 0)
(-1.49676147383344 0.679134495889872 -1.3281323134544)
(0 1.75741921205426 -2.29846222994264)
(0 1.34110025279237 0.828572688186457)
(0 0 0)
(0.844614751675083 0.611191576844674 1.35189446533649)
(0 1.09977119086323 2.76615059455077)
(0 0 0)
(-0.936168376254106 1.53084820996893 -1.73075763821058)
(-1.45446949183319 1.28521757552757 1.89778609146074)
(0 -1.91666968034514 0.718213840224974)
(-0.588052548826945 0 0)
(0 0 0)
(-1.02922567912188 0 0)
(0 0 0)
(2.98579464576643 -1.19561287528084 -0.939891139348356)
(0.054077827906324 -0.652772269809389 -1.87020260925362)
(0 -2.92993185694839 6.06253327544186)
(0 0 0)
(0 2.41389854353183 -1.35019690272051)
(-1.40283758330188 0 0)
(-2.48865477955486 -2.59369128328927 0.874994302838071)
(1.69418861559793 0 0)
(0 -4.69247805713399 4.0014939937241)
(-1.22865615231299 -2.04273254653939 0.841636351140957)
(2.44451091624682 0.28843915919758 2.0221550898474)
(1.23317337433313 -2.13667644195382 -3.48691471720756)
(1.50137814043584 1.50654663772314 -0.508133056525893)
(4.52303521479983 0 0)
(2.20468962198882 0 0)
(0 0 0)
(0 -2.17662290846345 0.492058430174392)
(0 -2.94313421334641 1.17719903980897)
(-2.3767237125234 1.52012609978917 0.408118868829418)
(0 1.48171110450853 0.396987990497234)
(-3.35635986677984 -0.716914669389883 3.41565101300038)
(-0.629917089707664 -1.48344913833408 2.41413470767089)
(0 5.68962658639664 0.058781112611261)
(0.802632518531224 0 0)
(2.22213591322661 -0.180198696198705 -1.55000125847778)
(1.64926879306425 0 0)
(-2.43304205593423 0 0)
(-2.70416782616685 -1.9609027348409 -0.490453218654137)
(-0.514231629024699 1.62895510360471 -0.0932910431004112)
(3.97557256645857 1.12878894799663 2.15452904231082)
(-0.0907830804677126 -1.37598106453907 -2.36535004613361)
(4.21943554962437 0 0)
(1.6354574218517 2.32881272977567 0.0583354835708722)
(1.49722921013087 2.00162666618776 -0.316199011161469)
(0.214076557538457 1.18310393865903 1.10429055602541)
(0 -1.26745874037914 -2.50525851395636)
(-1.2766044718608 -2.85098903035729 -1.86560129956033)
(2.56927700441614 0 0)
(-0.73422201027338 -1.71253489027424 4.09011414212717)
(-0.0142142771780272 0 0)
(-1.56276951259686 3.73788272693846 -3.38370820879768)
(0 -3.13709925968381 -1.4020633618664)
(0.82260451050263 0.792266977862777 -2.66826064025314)
(0 0.237331629446443 -1.54231617708998)
(-1.52573419844503 2.8241014365643 0.784449501214849)
(-1.57158923223279 -2.56650462609042 0.62287135100464)
(0.358984019079647 -0.236437610526706 -2.33577855236949)
(0.651017992539602 -4.64752417618378 0.796571111342269)
(0 3.59801611200093 0.163115101000089)
(0 0.00532804045268759 -1.48684918032895)
(-1.0837018010425 0 0)
(-2.75207493093692 0 0)
(0 0 0)
(-3.1653591028453 -0.332775342750988 1.47783027184868)
(2.4584737505958 2.80809747313007 1.12968302267174)
(0 -1.34102537622924 -0.767449947229807)
(0 0 0)
(-1.38081818867922 0 0)
(-4.08815950639483 1.39763657355687 -2.02601546717179)
(1.85465227871912 -0.898728459377573 3.17461810452911)
(0.28855307851327 0.724082281515899 -2.38052747381595)
(-2.99895774776428 3.07660184583087 -1.35313190104162)
(-2.41716386056256 -1.52763399137141 -1.78690530267069)
(0 -3.53943009374827 -0.610553063884532)
(0 -1.06362600438058 -1.05085189044101)
(4.08208997482698 0 0)
(0.315136317459672 -2.90941872745729 1.14106082466317)
(-2.02878971793327 0 0)
(0 2.34766946467142 3.14133173854269)
(-1.82608371765676 1.16594459640388 -2.71102069878252)
(1.61990501162605 0 0)
(0 1.06083097601266 -3.53589861181589)
(3.07760064070136 -1.87859491604553 0.828290669337485)
(0.585215495176488 0 0)
(1.47669084562433 0.613139428800835 -2.58900234312017)
(0 -2.85464757416783 0.561229195647788)
(-1.11374271465117 0 0)
(1.31360288898663 -0.432472032215564 -1.52259614770691)
(0.569383353605831 0 0)
(0 0 0)
(0 -0.957522276295604 -1.18248572667644)
(-0.311524827415862 2.48034590855806 1.38021237786785)
(0.468445837563232 0 0)
(2.80496949019564 2.49115303738089 0.367226662672556)
(2.7558682454223 2.94289995441651 2.40919214054527)
(0.430499891657537 0 0)
(1.99293669742246 -1.4361463031329 -1.37738484949865)
(-0.355211566059462 0 0)
(-0.312521187380542 -0.179722491865108 3.63889830295372)
(1.46732467554854 -1.48416165126852 -0.129676541683823)
(0 -1.12594095258933 -2.89656571869841)
(-0.440267944490914 -1.64941830490737 -1.6200324172597)
(0 -0.201171222905563 -3.52868438397956)
(-4.33781664320183 -2.56626101508596 -3.13081088565752)
(0 0 0)
(-0.0239580167694583 -2.14339411853138 1.68711107293026)
(3.31363364405855 0 0)
(-1.08978180594634 0.335395366405245 1.58546950376172)
(2.65163098265965 0 0)
(0 0 0)
(0 0 0)
(0 0 0)
(1.27685508195368 0 0)
(-0.952143262707249 0 0)
(-0.639915871963679 0 0)
(3.18083251493615 -1.083705594264 1.04560812759297)
(0 -1.13075299455659 -2.21646594119718)
(6.03166850520571 1.01869858466448 -2.84438512055317)
(-2.61929183962286 0 0)
(-3.25531407925276 -1.06097507720819 -2.17702718855043)
(-2.00310438598269 0 0)
(2.47577277074888 -1.36622085205822 -0.602780999922119)
(1.7855853366184 5.85923159667485 1.84092376423949)
(0 3.25852554194485 -2.56027815800438)
(-0.757380325282549 -0.708583324751331 3.14962315685022)
(-3.04138743086831 -2.15299686973117 -3.37557779199954)
(1.414870419306 0 0)
(2.21818757657239 1.65561539925229 -2.23392356084845)
(-1.23220802356151 1.95834078230942 -0.113538203416664)
(-1.22532085396521 0 0)
(0 1.52581202280677 2.26107847736853)
(-1.98415273167021 2.93230346306127 -1.39595202161841)
(-0.56847130431645 3.1675829057378 -0.214884070424162)
(1.35258008221999 -1.46970715398435 -1.39906183731771)
(-1.83695002439871 3.34490878685499 1.77918448125561)
(-0.687213887826718 0 0)
(0 -3.31987470625076 2.71231268315166)
(2.26601583064665 -0.404438719477437 4.90833106974201)
(0 -1.96551758921307 2.00664789491352)
(0 1.74658545781386 1.42401814554785)
(4.70042816611022 0.39231351129275 -3.55469372526394)
(-1.43593433179609 0 0)
(1.18838880344002 -3.45527807712586 -1.13373216111038)
(-1.59914297843437 -2.29762395740222 -0.376109245267249)
(0 -2.277974456635 -1.09854577673325)
(-0.887448945582497 1.43950567175309 4.45071944182856)
(-2.84093403818756 -0.972146742683713 -2.79442137728538)
(0 -1.66958786510904 3.04611072224621)
(0 0.13575260108674 2.53996985195252)
(0 -0.919996011536224 1.21453935296499)
(-2.68083942532816 0 0)
(-1.91604944009622 0 0)
(0.518150355063312 0 0)
(1.07083902707919 4.51077304369868 2.17040767023669)
(0 2.10524456785002 3.50867705502969)
(3.92137786747136 1.5621772145053 -0.33007106742199)
(0 -0.862435150277834 3.0541398122277)
(0 0.240993089223746 -1.91821102618774)
(-1.16135284900657 -0.725890073373 -2.39168988559101)
(-0.571776401417187 -1.50335881183188 0.55316371954569)
(1.56984797439322 0 0)
(-2.6110053470621 -2.03013685812675 2.14792885930523)
(1.28276844945528 3.21709697123456 0.845280987721545)
(-3.90089732611579 0 0)
(2.35061588760052 -4.65798631878339 -4.06118618020365)
(0 1.45509686872832 -0.469484099902776)
(-1.85121492908979 1.2851676122653 -1.91545258909247)
(0 -0.923607181173208 -1.20030722896974)
(-1.37112279864105 0 0)
(-1.95154567311131 -1.80439274898019 0.744142663426139)
(-1.14001814934358 0 0)
(0 -2.22371509304574 -0.258043532369555)
(2.17836086096811 0.932179539139762 1.76414647750733)
(-0.546028339261591 0 0)
(0.872344288350812 0.938019287795581 2.78877079215502)
(0 3.77550645843692 1.94154399802577)
(2.38580134040747 0 0)
(0 2.095068121099 -1.29094488698708)
(-0.0585122643860096 0 0)
(2.233511232517 -2.90225722392572 -2.67608299418977)
(-1.210247490675 0.131606615513687 3.81505335912304)
(1.3343868835889 0 0)
(0 0.978062809234276 1.12774224834759)
(-2.02679850917715 -2.43866521870951 -2.13308295377391)
(0 -3.41544033571476 -2.18710543408649)
(0.70617222703382 0 0)
(-1.86575745012378 0 0)
(-4.22300504188888 1.33672156545303 -0.890661445021486)
(-3.30906120728359 -3.12749275126536 -1.196066157994)
(-1.81244389124778 0 0)
(1.70070074366446 -0.490221032103357 2.28547479365967)
(-0.814893947337647 3.34244754676788 -1.63387996485718)
(0 0 0)
(3.20278464461112 -5.62404140723225 -3.05253419558847)
(-5.24715964101613 2.43584683453818 0.979686791393111)
(-0.592632735101583 -1.92083024235077 -2.46630818341015)
(1.59577689663312 0 0)
(1.31200287771965 0 0)
(2.68095599656591 1.26624691544696 0.754712549225752)
(0 0 0)
(-0.344002598942675 0.677454438710258 5.64830770709076)
(0 0 0)
(-3.02631521659352 0.563704680838131 -1.91011824480423)
(0 0 0)
(0 2.10585430932411 -0.736870719748303)
(0 0 0)
(3.1004902839405 -1.16510301667607 -1.95912370042108)
(2.02223910129762 0.427050941497021 -4.78747254674489)
(0 -1.53969453959987 2.58046458043536)
(5.4578484796964 -0.934313148786463 1.21848973187149)
(-1.09075166020278 0.28117946755731 3.89952489804996)
(0 3.46597798777395 1.35309083785035)
(-3.59825750080331 0 0)
(0 -1.59220343279364 1.5859919124793)
(3.01969040595565 2.10102215284056 -0.789729632555906)
(0.412567109936327 -0.993126188435701 1.24637769302527)
(-1.92014617429043 -3.07820426982852 -1.79478572068396)
(0.472211754625481 -1.56452241215955 -0.454793270758456)
(0 0 0)
(0 -1.2618809383649 0.879613971818474)
(4.51030195016354 -2.82340469168422 -1.69155436374253)
(-1.36493674532612 -1.16417442092126 1.67982603316634)
(-2.10987040608219 3.62379178259815 0.17790254843158)
(0 -1.10326593654932 1.19161201487652)
(-1.42858739081734 -2.23310147180956 -1.15907627333115)
(0 0 0)
(0.248857157615471 2.35444637248999 -2.71058440946152)
(3.31759208654336 0.633277394830361 3.88579235484199)
(-2.87168690920482 0 0)
(-1.53213760455717 3.53021192800291 1.25146388100595)
(0 -0.0298042543451156 -1.47778585394976)
(0 0 0)
(2.77788283636008 0 0)
(-0.542834225733833 2.38848709172247 1.08495836693731)
(-2.73838102623892 1.14121510123306 -0.992014236668895)
(0 -2.34612288045842 -0.776821314495113)
(0 0.891468945707123 2.71800833683811)
(-1.27960248969687 0 0)
(-2.6713716878467 -1.91392315411978 -2.34350088492755)
(0 0 0)
(-1.75572533822051 2.40307118162479 4.33439343607697)
(0 3.09784515341728 2.83706259740772)
(-2.91123523469972 2.20340444992143 1.46030234702583)
(0 1.42330284220526 1.30749321243155)
(-2.22154717343708 0 0)
(0 0 0)
(2.11500380679332 2.25628835295118 0.142971033139193)
(-1.47161946288162 -0.039648612158747 -2.67973203285212)