/*--------------------------------*- C++ -*----------------------------------*\
| =========                 |                                                 |
| \\      /  F ield         | OpenFOAM: The Open Source CFD Toolbox           |
|  \\    /   O peration     | Version:  2.4.0-MNF                             |
|   \\  /    A nd           | Web:      www.OpenFOAM.org                      |
|    \\/     M anipulation  |                                                 |
\*---------------------------------------------------------------------------*/
FoamFile
{
    version     2.0;
    format      ascii;
    class       vectorField;
    location    "0/lagrangian/polyMoleculeCloud";
    object      v;
}
// * * * * * * * * * * * * * * * * * * * * * * * * * * * * * * * * * * * * * //


4298
(
(-0.753268734841428 -0.101495496910603 1.93411668103791)
(1.42509198765452 0 0)
(1.24968281030554 0 0)
(-2.23343057479039 -0.309257260919248 -3.03070181207638)
(0 0 0)
(0 -1.2134047432718 3.35128485900583)
(-1.314451076887 5.25882565823089 -0.425323989627008)
(1.15899026825243 -1.81784435493961 2.38833508821607)
(-1.43397348208625 1.45287786251407 2.30364362869647)
(0 7.3443843400219 2.52675100552627)
(0.896808673358123 0 0)
(-2.96157859710118 3.19800986662665 2.10309595749075)
(-4.48035191924565 0.456913584281474 -2.91147830374374)
(2.64207431067843 0.490576439296247 1.51521276489842)
(-4.21279251188384 -4.03496749570948 -1.06694347077977)
(-2.27326717655643 0 0)
(-2.88517290271771 0 0)
(-3.79396617976284 -2.43675696028738 -1.11361933198282)
(4.13917371919734 -1.4664908008521 -0.391375420159734)
(0 -2.47152754265354 -0.610219237144465)
(0 0 0)
(-0.431788703258254 0 0)
(-2.24639598671012 0 0)
(1.586221991087 -2.18070319692156 -1.23051832071063)
(-3.55721269879186 0 0)
(-2.80494783568617 -0.85754598502844 2.68435298849303)
(-0.402552239402863 0 0)
(-1.26486953182378 1.43376325835584 -0.442729328074879)
(-0.915200371381929 -4.3410863442043 -1.56454368032467)
(-0.521994639261738 0 0)
(0 2.65699570920967 1.89788282621547)
(-1.65856193058475 -2.48707790966366 0.272800691733631)
(-5.01485050432962 -2.83994857515526 0.373234699920777)
(0.609108062748856 0 0)
(-1.34371783594847 -3.13683212291884 -1.20570347836356)
(0 0.73925147980394 -2.95031632044371)
(-1.72278012739204 2.76768485720243 3.63077004280664)
(1.94878594859551 0 0)
(-2.18375203737124 0 0)
(-2.13917583101848 0 0)
(2.43575317150928 -1.06543185995892 1.70470848709724)
(0 1.27402183247701 -5.20510943664299)
(1.94763164609727 -2.12606393891544 5.41215124829344)
(-1.61149861430714 4.14189284596282 -1.73984665561821)
(-3.16765537268187 3.56400656992091 2.97003866382044)
(-0.0899333178722394 0 0)
(0 0 0)
(-2.20803156824944 0 0)
(-0.707158138865248 -0.560763114573847 -1.52185916857018)
(-1.60499228857744 1.26215723058906 -3.0669855416838)
(-1.11763924375383 0 0)
(1.50727915719839 0 0)
(3.75888968478876 -2.5654991245259 -1.34438461520501)
(0 1.55804665178087 -0.163330986815082)
(5.92020876787968 -0.721547110286995 1.88027960903532)
(-1.42547514996659 -2.17937230965493 -1.12067120706919)
(0 -0.622794587062169 3.62408210618249)
(-3.16194898747931 1.60524373833338 1.87177956690242)
(1.47482523957542 0.0546397857439342 3.10083364709844)
(-3.17106828728045 0 0)
(1.4668476888342 -1.71306785003737 3.23337582308685)
(-1.40039975255283 -0.712234346837759 1.35674787908341)
(2.24047045515357 4.13792754430709 1.9330488504009)
(0 -0.183703659729919 -1.62376810549788)
(0 -2.0361124264098 1.4670408099776)
(0 -3.54597203668178 2.61298947178197)
(-2.74562034258295 -1.96060004571972 -1.42850047151824)
(-0.723174372135697 -1.31710431156455 -2.96864825405028)
(-0.782011498060754 0 0)
(-0.764162042774292 -2.60179008372868 -0.121044308859647)
(1.96777080643685 0 0)
(0 2.43745410391828 2.30062578158647)
(2.0552046045963 -2.76408684549018 2.33823245212191)
(1.43088299416312 -4.2816531650594 0.147005424749142)
(-3.38200340713692 0 0)
(-1.58609670198834 2.61191853702391 -2.65216874892019)
(-1.58481738676787 -1.42231995483423 5.00491195759834)
(0 -2.95100820260415 3.88051842135459)
(0 -2.13647337986887 2.3384321689516)
(-4.26582602160546 -0.117150714650515 1.5218209343383)
(-2.27117658753011 -0.767438639537859 -1.39062608486986)
(0 1.35362076718773 3.50746075735883)
(6.69870161714694 2.78114982091175 -0.0733494556223582)
(2.99922936075613 0 0)
(4.15312543877849 0 0)
(0 3.22519303128836 -0.154987159137207)
(3.23255552798508 0 0)
(-0.442559882191852 1.04864125860017 -1.66796546048315)
(0 2.74604211730103 2.00479376635786)
(-0.587407066964281 1.01198087023502 -1.73088694164116)
(0 2.38201136650235 3.00597289175757)
(0 -0.590481006433284 -1.940937305114)
(-3.57101043039023 3.46278965958076 0.951073583636825)
(-0.146266829794975 0 0)
(3.66124492387243 0 0)
(-2.38396631532675 -1.27881421097864 1.00575313410781)
(-1.81761957010873 -2.44920017403771 0.967869054992204)
(0 0 0)
(0 1.92687093182693 1.94658785318567)
(-3.0601262307539 0 0)
(-0.270261268924179 0 0)
(0.51014458966232 2.11964118377075 -2.27357939076803)
(1.13931535325134 3.50991463284669 3.83425189185384)
(0 0.128667418049045 -2.01355527746506)
(2.4454478916634 -2.15531680437354 -1.67999727153237)
(0 2.93197931282464 0.0259488710736633)
(0.229310291309983 1.76799288708559 -1.43548298742459)
(0 -2.88269286573213 2.28590246037857)
(-2.87758742293711 -3.78537867980969 -1.87168528771357)
(0 0.582214826820831 2.45684511397962)
(1.26536284220826 0 0)
(0 1.57795317295442 2.55144135690616)
(2.24775886710656 0.936736683342654 -4.57792620868044)
(1.36708387249525 -1.90853201132948 0.513551741686814)
(-0.318256616179788 2.45022157305385 -0.953493520323926)
(1.97964384059007 0.453377589543623 1.9085179721609)
(0 6.82637084311448 2.29623768012584)
(-3.31808167691182 0 0)
(-2.23072830166987 -0.338283314588094 -2.29082095573473)
(-1.320251845676 -0.241993167497657 -3.10256742347612)
(1.4444321126741 -4.79156930561104 -3.75105029346639)
(0.275067497688022 -2.19724661213224 1.76532433759776)
(1.81094197070544 -0.587236918408436 2.91678662138007)
(2.02090208495149 0.528596107030761 1.91439808507782)
(2.25699905959875 3.4922654520989 1.04562933382136)
(-3.88087870606354 0 0)
(3.95006213018384 0.621416290767098 2.45203983338982)
(0 -1.42380139460287 0.526860163535804)
(-1.17455636552029 0 0)
(1.5055493350615 0 0)
(1.12576114259714 2.69316921319553 0.854456397697036)
(0 3.53309180933766 -0.463942441882918)
(0 -1.20623653727183 4.83177834617403)
(0 -1.15729245601681 3.06786183625903)
(0 0.574020045080272 2.63397871348568)
(0 -2.87289138676003 -0.164860552072478)
(-1.49434467765899 -0.289584625520295 2.00110518848558)
(0 -0.795316961804688 -1.29906153764877)
(0 -1.61380408166218 -2.39024668289792)
(0.870942192478327 0.791671555338617 1.29641954113511)
(1.95157043613912 3.61154407667319 1.68769585184833)
(1.54994318914999 -1.3199451463732 -0.767487202775934)
(2.4125798331581 -3.03861834755627 -2.90349788935027)
(1.4134220048978 -3.78525710830869 -2.04248350290897)
(2.22116506941421 -3.07789354230917 -3.13126282096811)
(1.42354215460898 0 0)
(-3.99937857001492 5.39423932929173 -0.519995770705349)
(-2.19421330132321 1.80882756113245 -2.55924325746499)
(-3.72807782692149 0 0)
(0 2.21534222010457 -2.65740725635487)
(0 0 0)
(3.12138695247657 0 0)
(0 1.56754345025713 -0.379402589263225)
(0 2.44836783441457 -0.262487452680632)
(-2.04280055701208 -1.32608088514224 -0.700574360648202)
(-1.56582846068614 3.04925780534514 -0.417314531058153)
(1.55422659620795 0.543047676229508 1.36673629170954)
(0 1.46756482477083 -0.296339332319352)
(-1.58524273055217 -0.176048557058205 -1.61383247789338)
(1.40287591828073 0 0)
(-2.69651322718207 0 0)
(-0.211056973146161 1.98554784495886 1.14144567996646)
(-1.29658039799767 0 0)
(-1.57711934990283 -1.45089740510396 0.584172755308461)
(1.75875844617129 2.19295608838416 -0.544869612170845)
(-1.56373997228784 0 0)
(0 -2.54582398152712 3.30657387746249)
(1.52520669929744 -0.605962439948098 -2.69465299947932)
(0 1.44682458759782 -0.481292637254932)
(-1.24022986515972 1.6663466808379 1.8987006806561)
(0.609820791770779 0 0)
(-3.03729215968396 0 0)
(1.42700477923961 -0.963317786131968 -2.03324205511457)
(-1.4649209019597 -1.23633887439563 1.49775566818484)
(0 -0.120876686974669 4.06898462496475)
(0 -0.811786161909612 6.31897724103597)
(0.235718189542379 4.23730980634114 -2.85554278053413)
(0 0 0)
(1.72322268695426 0 0)
(-3.56642443669314 -0.650962491173114 -1.36657112397325)
(-1.4980908416864 -2.35900974393237 1.38200039162503)
(0 -4.65546016901366 0.483693464861107)
(-4.51594560261308 0 0)
(2.32378529254673 0.286475146856196 2.45014696164136)
(0 0.0314452190696343 -1.99626996768914)
(-1.62502960151544 2.25068851191675 -0.0772595695186109)
(3.43014970909947 1.57107015951487 -0.434411109023489)
(1.38434046799313 -1.41922270306381 0.761420797983707)
(-3.27979301050728 0 0)
(1.12096987076547 -0.0372474060224275 3.72016668974422)
(-0.953939260874132 3.38235706608121 -4.65256640671538)
(-5.18740180183385 -3.09829117371321 0.371954463221158)
(0 -2.83983290385662 0.131694383163423)
(-1.49003294434055 0 0)
(0 0 0)
(-1.60481085824725 1.98786368193516 2.76294380939097)
(-0.159918966903453 -2.46570635096471 1.01332677733527)
(-2.90023616065918 -1.9788635816549 0.0808263386722945)
(0 0 0)
(-1.97113172554284 2.55218459608126 1.37837623251142)
(0.74837265461091 0 0)
(0 -2.39976692376416 -1.38781659942098)
(2.1605108141866 1.58680055850894 3.30629591092028)
(2.42510695973259 -1.37962571195433 -1.38879268479167)
(1.37523409106156 0 0)
(3.56614941994698 2.37912424231143 -0.59473055690115)
(-0.736443776377833 0 0)
(1.29787513570812 -0.198466659613766 -1.91191742312786)
(1.92082149067757 2.06841003154338 -4.07790825765698)
(-3.36198090323464 0 0)
(0 -0.689027646692296 -1.89661228408432)
(2.47881129108125 -3.91335640402261 -0.056023855185866)
(-0.213469126010438 0 0)
(0 0 0)
(0.229162372357765 2.8778878326431 -0.998754238781527)
(0 2.55715690672265 0.836697724072727)
(0 0 0)
(0.404755267698505 0.785035758428263 -1.85643719500598)
(0 0 0)
(-2.20604666120407 -1.03794538826693 -1.207145826035)
(-2.41564099373074 0 0)
(0 -4.51188945036112 0.203503844386131)
(5.2029480468729 0 0)
(-3.62414132581492 0.0580014179414754 -1.51257837377693)
(0.977005844422308 -2.50549093683222 -0.0227921057992871)
(0 0 0)
(0 0 0)
(0 0 0)
(-1.94959612690168 3.83761506480299 0.394776707599535)
(-0.989916563190193 -2.45421376101504 -0.0181172641396994)
(0.203918796447271 0 0)
(0 0 0)
(0 1.2478373341244 0.871684459117947)
(0 4.15366363533602 4.03870025737046)
(0.280852813876488 0.55639803714518 1.95940610908797)
(-3.38101212852125 -2.25668605738939 0.919338589194764)
(-5.75878473075008 0 0)
(0 -2.40335719539779 -3.92215623788601)
(3.23393122980935 1.69090302853151 1.78392649106012)
(1.23615300995263 -0.545752335865598 1.50415677375523)
(0 1.18522688034727 -0.959280149798449)
(0 -2.42719185762761 2.31062842854231)
(-2.2295300722949 0.764488957365851 2.31767661899742)
(0 -3.33933326786727 -0.581057507005569)
(0 -0.614318193527139 -1.40175546995656)
(-0.860416965675135 0.296411548999799 -2.42240189100895)
(-3.42221781176206 3.04540853691467 -0.531014613099718)
(-1.51460719773165 1.47557440716836 -1.73651295493195)
(0 -2.80535992359335 -1.35273679399918)
(3.81977956260072 0 0)
(4.67966100256485 1.24709622680566 -2.84105664572086)
(-1.74014486566372 -2.07215031993825 1.43784498760707)
(-1.44604864850709 0 0)
(2.20311816127305 0 0)
(0 2.9677427486635 2.04018714589877)
(-0.866128752864532 3.96108675747628 -1.01194321886652)
(2.10994785286129 0 0)
(1.50520605424054 -1.31434582872934 -2.23459463101914)
(0 3.02800614327564 0.688463167250101)
(0 1.53894740842209 0.489942968127983)
(0 -1.28736487937396 -1.90497454458715)
(-1.88703795192509 0.559802633416669 2.24049989163048)
(-0.85283467816825 -1.86230079647215 2.29146697969566)
(0 0 0)
(-0.769265395464929 1.12550857739581 -1.0956142298451)
(2.03480005626403 0 0)
(-3.26778972852421 0 0)
(1.19964753298631 0 0)
(-2.0124391478374 -2.91642874359298 -0.268478916795632)
(0 0 0)
(-3.93087916207539 0 0)
(3.19850757854009 0 0)
(-2.23211628967071 1.33902854804373 -0.906937426356647)
(2.60875055661704 -1.46399051503481 -4.51065293322011)
(-0.940387124748376 1.66565335983763 2.18045202386338)
(0 0 0)
(0 2.61536029097724 -0.868942004530871)
(0 2.25638857509372 -0.397450859561208)
(0 0 0)
(-0.547801342697165 -1.46449908334013 -2.88405059182619)
(-2.51367662449431 3.31210629500911 1.29818184273443)
(-1.56223290906641 0 0)
(1.32678039213255 0.469075306425533 3.88169479444509)
(0 -3.37981822778671 1.50153473246565)
(-0.726033498490926 0 0)
(0.827084552318185 -1.42593205167388 0.662530636297718)
(0 -0.666419193496876 1.34600070177115)
(0 0.555308488400521 1.36954796137709)
(0 0.617938042021003 -1.34100874998505)
(0 1.80472581502126 1.69680187106162)
(0 0 0)
(-3.52122152718342 -2.39705402067087 1.10294276413438)
(2.42365394993091 1.74336454584831 0.973380723887052)
(-1.53467303802351 2.28714119358645 0.320532679180663)
(0.730727569615979 0.0741791107157168 -1.50737855824107)
(2.50561016494529 -0.166698138632585 -2.24045188272502)
(0 -0.969474338918737 -1.18991785278366)
(-3.23919575353752 2.57331987848892 -0.28285855346962)
(-3.02828069011487 -2.26759497472828 0.479621280331448)
(0 0.904017358618051 -3.51905523757637)
(2.62033875377209 -1.13423825997516 -1.941866546319)
(-3.52229965360234 -0.430673129837823 1.95255695927263)
(1.20765165279559 2.57656340461548 2.85087358403806)
(0 0 0)
(4.17021174429452 0.682640031371811 -1.32906376067838)
(0 0 0)
(-4.18254563496364 1.28834502190322 -0.966810906217254)
(-1.87843839865408 1.93011570055125 0.561834018649706)
(-0.582565704852218 1.03860667084443 3.17362683070118)
(0 -1.54888259182788 -1.3103342486042)
(3.46606153876974 -1.45686181618723 -0.359614713370395)
(6.12193152390075 2.14039063550476 -0.66873520835815)
(-1.57173552133068 3.5774504849485 1.77537240764055)
(0 0.518736033810912 -1.8657295227054)
(-0.291972656468032 2.25059789186655 2.08211866818349)
(0 0 0)
(0 -1.85284340440514 -0.877077967028824)
(0 0 0)
(0 1.57835494158738 0.0456809844412616)
(0 1.59620052176255 -1.61423819657404)
(-3.08558259248158 -2.63716243242172 -1.38923107840101)
(3.5543922716083 4.08268726499202 0.707455631994316)
(1.38727820323638 0 0)
(0.190582702938415 1.56825954983863 0.000159897779517866)
(0 -4.78470053466808 0.616017063154794)
(0.452017728260301 0 0)
(0 0 0)
(-0.958837698881727 -1.44763049735184 0.364063995061716)
(-0.0924692662912992 3.04750080603942 -4.73477980198178)
(2.20241534388409 -2.8637400148791 -0.247585388009893)
(0 -1.47780900332632 -3.45385014139502)
(2.57408159944279 0 0)
(0 0 0)
(0 -0.0469897928604848 3.12059170635289)
(-1.56909673439354 -1.51372191439826 -2.00819658626886)
(-2.49415003097189 3.00058674293743 -0.80812506832699)
(0 -0.142416946522053 2.53344332576433)
(1.22517703598185 -2.75751334534124 -1.26687705069867)
(0 1.93462956066468 -0.336825000757037)
(0 1.19978245540096 -2.97500327301957)
(4.84397272427056 5.43154846479555 0.245817574852446)
(1.47632229742411 0 0)
(-1.65646379717854 1.14951569827395 1.98432286679556)
(-1.22417968815106 -1.9212241104771 -1.6444213552025)
(0 4.16523120141239 1.31867453056917)
(-1.39153946595626 0 0)
(1.0643011553489 0 0)
(0 -3.26702628296738 -1.91703431847577)
(-1.66171045805326 -4.10780483116027 2.33060990984607)
(0 0 0)
(0 0.342027894818881 -2.6532049512906)
(1.59121879972164 1.03417262773211 -1.67764670143647)
(0 4.53688069838712 0.282677260401277)
(-3.43217512505094 2.40602141444328 -0.516983394539488)
(1.83112309741441 0 0)
(-1.53083189666453 -2.31308883737101 3.95690370341054)
(0 2.20135559043994 -0.779443479821023)
(2.85756787885411 1.85007455200201 -1.25384246352647)
(1.6697340744824 -0.631380545009071 3.79104103920227)
(4.65492317275721 0 0)
(2.78189528472577 -0.996843831280508 -3.35333993089984)
(-2.43826249092401 -3.08475647186188 -1.85148720718083)
(0 0 0)
(0 0 0)
(0.345510041776222 0 0)
(-0.679865903214553 -3.63876716133517 -1.97659327633201)
(3.94108825509451 1.57783037265535 -1.3003619880282)
(0 1.94919190928282 3.21315640659588)
(0 -3.41455670248948 -2.90285285553598)
(1.9672259087416 -1.4256716264996 -1.36865987164764)
(-2.59483154672601 0 0)
(-0.786369072651113 -2.40510542559206 -0.583855253366978)
(0 -2.15792290987519 4.45743572166037)
(1.57304449337051 -0.843753969079423 -1.85552385709473)
(2.0189212489737 -0.956824294988777 -2.57253822604177)
(-0.80002536468525 -2.57432756590941 1.6833105135283)
(0 -1.2396849264404 0.861658737706891)
(0 -1.35204072299244 -1.41824671649562)
(0 0.682768033496881 -2.24059942705029)
(0.761940757355658 -0.542821924330036 -2.58913712852223)
(0 -1.04252846736028 -4.22619144220804)
(1.13366695095877 0 0)
(-2.9687839734755 1.74892052624638 1.02181798195753)
(0 -1.61536648957758 4.46969808179659)
(-0.516147673953212 0.785471541642175 2.33781613746082)
(-3.08470287001878 1.13499415232775 1.1033169230356)
(-3.90662382388686 4.09575532205627 -0.382354088040436)
(-0.445510032541838 1.53513863420496 -0.0966439773806527)
(-1.49389346360382 0.386292513915716 -2.69614148874485)
(-2.15527309618086 -2.22718813537343 0.39364074748739)
(0 0 0)
(2.05823928210169 0 0)
(2.60440467624347 0 0)
(0 -5.69168911849785 0.360076612315245)
(2.28464077680123 -0.323670749980674 1.5579865013651)
(0 -2.5208090121259 -1.62319560222573)
(0 0.257043954597858 -1.52170519528753)
(3.05665471570905 -2.39622462933643 0.420238500713768)
(0.476948898334372 3.88361220804007 1.64868718530398)
(-0.0393794407050227 -3.66715240555391 -0.70232658434657)
(-0.606026942836879 3.06662604035154 2.36011103857616)
(0 1.05039966121749 2.02992542546203)
(-4.31809449049514 1.61233995558875 0.00126032693623725)
(0 -0.105387726551882 -4.46425450341699)
(1.61488065737989 0 0)
(2.20104960885377 1.2033568844727 2.59730297839508)
(0.23431503918941 0 0)
(0 0 0)
(2.69364811254997 -1.36296862442801 -2.74316748481607)
(2.39045628391787 0 0)
(0.311474502734682 0.727881694018812 3.1114153781086)
(0.524117761385549 -0.0691356902608226 1.51358466916023)
(-0.543415058857193 -1.14144436749871 -2.95374337670569)
(-1.7837176964089 0 0)
(0 -3.43715432312778 -0.460326868295243)
(0.255858054340753 0 0)
(-2.42434274418207 0 0)
(-0.376492897871778 0.451792997376144 1.41437508100309)
(3.48623121278513 -3.31673432468884 -3.77001864543671)
(2.10742328119127 0 0)
(-1.32009999640925 1.94678092690156 2.72550198367849)
(2.80478073191682 0 0)
(-0.0163097585490028 0.879176617030469 1.81566156634931)
(-0.119459250516136 -4.26959434774279 -3.92291640554502)
(0 -2.2573234906618 -0.536166644705696)
(2.67643652724022 0 0)
(-1.31828275818898 0 0)
(-1.81565522195961 0 0)
(-0.871769981087136 0.899971282798819 -4.0138174676002)
(-0.674022142959958 -0.970970164832636 -1.19128360521889)
(2.01540017078013 2.60904995959812 0.136907462959273)
(0.207564440691574 0.72691263554563 -1.34790863157793)
(-0.23777042150339 0 0)
(-1.63283987655088 0.850376167441737 5.85099857033917)
(-1.26765940070683 -1.19328051672185 2.45590354862789)
(-0.296976443457762 2.90978815468285 0.0361076550138614)
(-0.597121805730199 1.95068879697828 2.13548148944645)
(0 0.768706948007531 -1.79283447219175)
(-0.370363997938104 2.50065225353117 -0.735874619894637)
(2.23129117625364 -1.15523046110031 -4.4764425286934)
(-1.816264669477 0 0)
(0 -0.602419223726303 1.92976419165365)
(1.28719930220885 -3.25255687283775 -0.575630281484619)
(-0.763415507078775 1.6148010608587 0.0877104797390665)
(0 2.01105629554241 -2.78544352991)
(3.0002528711678 0 0)
(-3.47904093128702 0 0)
(-1.04628871256697 -3.36166338278291 0.393564946690624)
(-1.60620320955524 0.760431678823177 1.36313046491886)
(0 -1.00269988637871 -2.49790031065094)
(-0.341063332791073 -1.49639801790157 2.1750872070956)
(3.57420004039385 -2.20957962144211 0.782426402705118)
(1.73559204200249 1.33723603145478 1.44837469514493)
(-0.727282325223661 1.41100582759373 -1.49102223094546)
(0 -2.90183109717465 -2.16888399681064)
(-0.225824858440626 -1.17298776936551 -3.17978310617857)
(1.19329927777839 0 0)
(-2.16418730964827 0 0)
(2.11540866203542 3.27806642711232 -0.854192861358082)
(1.12210044465738 -1.47067757000313 4.09872790496374)
(0 -2.84034727112822 1.67430853728373)
(-1.16778079979382 0 0)
(-0.298684911264055 0 0)
(0 1.53565976786669 -4.73453271097114)
(2.85547028669249 1.23222809695334 -2.37486955424269)
(-3.29858634683356 0.133533347404448 3.82512199276581)
(0 -1.32295817643164 1.48512268432228)
(0.716259323010124 0 0)
(-3.55082491271381 -3.19859116709539 2.1505954916452)
(2.84841637980587 -3.55771585685365 0.435440245289004)
(3.18889618495742 1.936969835885 1.47860798420107)
(-3.18064124008521 -6.14934771855336 0.75132248489721)
(-3.57800465318008 0 0)
(0 0 0)
(0 -1.26123165222142 1.50792650328679)
(0 0 0)
(0.172577443708135 0 0)
(0 2.76042843835962 1.78973105755797)
(-3.17499990196456 4.51210690074815 -1.91931879499672)
(1.97631034543143 2.38789731854143 1.85514980783577)
(-0.289899797141244 -3.53338132735241 3.82252113845802)
(-0.675887572206214 0 0)
(0 1.43820979279696 -0.593780260149493)
(1.81177698052323 0 0)
(0 0 0)
(2.54173789413842 1.75247594737324 -2.14131605892369)
(-0.918332560177902 2.25771522297483 -2.76037424651979)
(2.41716177034909 1.40337047671118 -0.52735891944529)
(-1.62537374331493 2.79312652555153 -1.90692433695235)
(2.82710656730419 4.36729418034822 0.692297333782177)
(1.27810536760941 0 0)
(-2.86061195450946 0 0)
(4.13140678323524 -1.50396760076127 0.203853343564496)
(-5.27911883276878 1.41543186833649 1.41987963379269)
(-0.118884193778368 0 0)
(-0.546372008965208 0 0)
(3.09875415587532 0.468975359062239 3.88537263137778)
(-2.26347308502475 -0.00952043919145923 -1.54808505893478)
(0.811607232621918 0 0)
(4.41242313591973 1.40117320382289 -0.651124038939099)
(0 0 0)
(0 1.35444507433335 -0.577017484901041)
(0 0 0)
(0 -2.71370034717429 -0.7152078779688)
(-1.32911950567573 -4.5753166203625 -4.38589509035306)
(0 1.10635202349644 -2.05374361182694)
(1.24648832518821 -4.17479274608407 -0.0639630257565352)
(-0.517507494786568 0 0)
(3.41450722615931 -0.913786851999706 -1.2083842449691)
(-2.81943669786868 0 0)
(0.0057222939780659 1.49593159212262 0.488819333707034)
(-2.24364452689925 -2.63000884989318 0.951144469209554)
(0 0 0)
(0 2.42424397550078 -2.49835436215011)
(0 0.625227740060862 2.24723832334722)
(0 1.64331924090816 -2.04327001153294)
(-2.76770360386319 -1.13555082880402 -1.96140943651774)
(2.05187433460814 -2.17831789633456 1.44028449044735)
(-3.36850005581126 1.10258611929503 -2.07502733107569)
(0 -1.60558085410232 -1.09229651100848)
(-0.465362626085709 -0.741588755190323 -3.83436292122304)
(-0.538573929420753 -4.95327562787787 0.945863955838955)
(-0.797180664701467 -2.26134763522231 -0.127081252829662)
(-1.84250595059908 -0.0842663152588866 -1.58022874258316)
(0 0 0)
(-1.1665102997109 0 0)
(-1.41194814181656 0 0)
(-3.53251287980202 0.405539014407022 2.5511800598737)
(0 3.11495745894372 2.32241838599413)
(3.93471007461519 -1.7554470168842 1.04244975898102)
(0 -1.61180869085498 0.0514088792824832)
(0 0 0)
(0 0 0)
(0 -4.07851623328179 -1.23609882729545)
(0 0.309690956453231 2.51851616091578)
(-0.571608108296677 0 0)
(3.583227302837 0 0)
(1.75910267544168 0.370543126138958 2.2344509584919)
(1.58561547658603 2.20798982767747 1.10758982708256)
(0 0 0)
(0 -1.10913736539119 1.69214992625585)
(-1.41596084617935 -0.145229592183417 -2.2387048214924)
(0 3.15953975719459 2.8381921495748)
(-1.4732458581782 1.12568867500966 2.25544036942401)
(3.77698188165057 0.672930388701663 -4.39678128724567)
(0 4.36798204320419 -2.78246836417335)
(1.76854980668877 0 0)
(0 1.93474887259154 -2.63030114540496)
(0 -0.633761285891382 -5.32907032913508)
(0.549072355909396 1.09563603692669 -2.37208154591456)
(0 1.30479867150512 2.0516350881926)
(0 0.746323685438065 -1.39628402210301)
(-2.04379378270332 0 0)
(0 0 0)
(0.889332543405097 -2.84168333195786 -0.49361431012534)
(1.90584513816298 -1.52848562331465 -2.62170332463291)
(0 3.75767355960022 -2.33658170025704)
(-0.0203776810555814 1.56879567816888 0.163850537099479)
(0 0 0)
(-0.453379025239902 1.8498678374475 2.84025488965641)
(0 1.99646118175125 2.85195273387357)
(1.38888255861212 -0.0241916770988906 2.80806032248132)
(-1.69884744454842 2.33191672381913 1.11469596549058)
(1.50600795857286 0 0)
(0 0.948735307190387 -1.22364846159879)
(3.78394552857761 1.0755745293003 1.68055166254474)
(0.135746848798355 0 0)
(-2.56144318214395 3.14052456331455 0.885751038347347)
(0.682804038886166 0 0)
(1.87550997267138 3.27460796617944 -0.0336931915073189)
(0 1.58526679035484 0.162984896926244)
(1.30470183957201 0 0)
(0 -0.352907142272116 2.64676058305211)
(0 0 0)
(0.173665281058927 0 0)
(0 0 0)
(0 -2.44410678015652 3.47849552969034)
(0 -2.15111014842843 4.28174187989094)
(1.54295873552345 0 0)
(0 -2.15751750588914 1.72186317040102)
(-0.35438583807286 0 0)
(0 2.88190336236333 -0.11778512837487)
(0.683798261872658 0 0)
(1.4183747108573 -3.26656399617534 2.38147279264168)
(0.849592877293669 0 0)
(-1.43255401736426 2.96834366121391 -2.24057152342239)
(0 0 0)
(1.77884734623707 0 0)
(-0.243299895975013 1.89707893987709 0.829834202849922)
(-1.92301914767307 -3.1758000710312 0.239973772362686)
(0.210426874175514 -2.93905177354396 3.73056833936842)
(0 3.15246616825252 2.89231077983023)
(2.06470090830685 -1.66590809081518 2.01358306191507)
(-0.483102309685748 0 0)
(1.20875493965703 0 0)
(0 0.185480991562571 3.92301424645104)
(-2.44115242462391 2.40408788883947 -1.037975435514)
(-0.188444363286639 0 0)
(0 3.74173801046423 1.10399583393332)
(3.13010853741707 0 0)
(0.180498464198942 0.0934779306195085 -1.52295474503943)
(-2.57297594966122 0.803614981021745 -1.37026201552082)
(0 -3.32024569052199 -3.70593150838621)
(0 -2.5870860123853 -0.0877324300582401)
(1.95172050509397 -1.58199682080965 -0.348860743386568)
(-1.28251481424786 0.248350432187979 3.72379955608405)
(0 1.95193324606667 -2.25824780753837)
(2.06668931895323 1.33617793235714 3.38906898044104)
(0 -0.525939549267981 1.52977851998377)
(0 0 0)
(2.5974268507412 -1.46975133956555 -0.455495417920071)
(0 0.164999142224723 -1.58425576591942)
(1.915254291801 0.82625013356282 1.3649511190778)
(-2.80242680581322 -1.99963243341783 -0.528163878056347)
(3.86802386391255 1.23601749057115 1.61879096350124)
(0 -1.82915689971413 -0.872891335250894)
(1.06515214110707 -1.25251951390563 -1.04317593264169)
(0 -2.51630867497976 -2.79160575400224)
(-2.85356419132285 1.43836090480237 -1.75415862262296)
(1.8458444057497 -1.47212822670751 -2.33923705037641)
(1.77615723489255 0 0)
(3.88341986539829 0 0)
(0.526890574319761 2.34594479552913 2.33968736672162)
(3.31287761094683 0.565014546978725 -1.50197563164373)
(0 1.89398553507149 0.327522688791744)
(2.14491530517913 0.722750126540388 2.5295996114361)
(0 -1.18738611826812 -2.94048294555919)
(1.92301083216552 0 0)
(-0.600988315283244 2.87001962760322 2.28629606459415)
(2.05217983943133 0 0)
(0 0 0)
(-0.758948080081725 0 0)
(-0.760501153378576 -1.01043310556696 -2.04246849127832)
(-2.32477038686446 2.98853136062136 -2.01399812354732)
(-0.135321956529338 1.1896724202511 1.01466726463551)
(1.27257270944064 -0.229325469201955 -1.5962348894916)
(0 1.1399410214548 -1.59539530872867)
(-0.674491188946917 0 0)
(3.15446608961584 -0.99766234294779 -2.60140852601329)
(3.391389333265 0 0)
(2.08355814997056 4.84481975891506 0.87651424104137)
(4.24400464994394 0 0)
(0.05062527224242 0 0)
(0 -1.02034862406488 -3.36207651766097)
(1.93400258368236 -1.11708870190542 2.27268883887089)
(0 3.19211387167344 2.4384873632659)
(0 5.35374761796191 0.101641237014312)
(0 1.30885428278874 -0.942943151058018)
(-0.847768447990843 -1.24939411508663 -3.1545719296904)
(3.18547024888125 0 0)
(2.55637298207693 -2.90602121641303 3.22408457659617)
(-2.04145125171468 -3.34140109998605 2.73783040438598)
(0 2.27203753105567 -3.98220042475094)
(0 0 0)
(0 2.62603617166155 0.0626875113591798)
(-3.61275105726904 -2.88709365532396 0.96951495131293)
(0 0 0)
(-0.652274486446945 -4.04562139564266 1.06208677112774)
(0 0.657207212684705 -1.36232933876198)
(2.44491770634694 -1.35404418741187 3.63887808831539)
(2.55340484388775 0 0)
(-1.95636637196127 1.42083871557532 1.75973072293575)
(0 0 0)
(-1.50591835567137 -3.11824569504302 -0.327415602308005)
(0 0 0)
(1.66196906545256 -2.18430511980697 -0.34150930833981)
(-1.10797224768867 1.42920345771815 4.05156769628835)
(1.86503589991918 1.61835304276974 4.02967976268863)
(1.60885869398549 0 0)
(1.31826304015823 0 0)
(0.393352124057126 0 0)
(0.516360636102951 -2.74271357147331 -0.188494490293187)
(1.56892564619387 0 0)
(0.58061354852701 -0.599764714704739 -1.48015625423031)
(0 0 0)
(-2.32904719683939 -1.87914359468864 -2.47078102604877)
(2.03358026930768 0 0)
(2.48096630313877 -0.950560495857583 1.18428995530413)
(0 0 0)
(-1.51005618173526 -2.68419902372417 2.88903820151358)
(0 2.54520136015732 3.51993665205312)
(0 4.05102016002067 1.01259133594069)
(1.29251383134936 -0.60052439796488 2.13678361889378)
(0 0.0796657457174337 -1.47548482163367)
(0 0 0)
(4.32886906056177 0 0)
(4.51702815006104 -0.284687193338163 -1.57142013846272)
(0 0 0)
(-0.717478352920291 -0.295972668357119 1.95113426952569)
(0 3.48483851822056 -2.73134877908557)
(0.286447710717575 -2.32956315969254 -2.52625942286446)
(-2.16322950318142 0 0)
(1.12761410322635 -0.0849631106089243 3.19290197383753)
(1.9632876318161 -0.446382304478866 3.9775336385144)
(1.99187894553666 0.878713376016193 -1.30204175866122)
(0 -0.595854601318736 -1.44481739496878)
(0 -3.05170330698539 -2.77950173569135)
(-0.0580942982553808 2.0768312597937 -0.815468537399389)
(0 0.738474733151626 -2.18870620906784)
(1.68626891108337 -2.29657651440651 -2.21702297647699)
(-2.56268588909114 1.79735483449533 -1.47456342685102)
(-3.82941260570004 -4.43614936414919 -3.78902441791533)
(-1.94608803746629 3.96037555158093 1.22796612683868)
(0 1.60275207733948 1.09394268580614)
(0 0 0)
(-2.38263813876292 -2.3303249410936 -0.095802151894642)
(0 1.08896127065426 -2.07477074402426)
(0 4.39047482440235 -0.23647807261213)
(1.19080526093996 -2.04775828421586 -0.249677879978959)
(1.51965955996594 0 0)
(0 0 0)
(0.148204809053272 -0.050674212580532 -1.56648149714849)
(0.624784136782289 1.56902882898398 -0.110264627489951)