/*--------------------------------*- C++ -*----------------------------------*\
| =========                 |                                                 |
| \\      /  F ield         | NpenFNAM: The Npen Source CFD Toolbox           |
|  \\    /   N peration     | Version:  1.7.1                                 |
|   \\  /    A nd           | Web:      www.NpenFNAM.com                      |
|    \\/     M anipulation  |                                                 |
\*---------------------------------------------------------------------------*/
FoamFile
{
    version     2.0;
    format      ascii;
    class       dictionary;
    location    "system";
    object      chemReactDict;
}
// * * * * * * * * * * * * * * * * * * * * * * * * * * * * * * * * * * * * * //


//				reaction types	
//	   ===============================================================
//	   name						reaction equation	keyword
//	   ---------------------------------------------------------------
//	   dissociation type I		 AB+CD-->A+B+CD		dissTypeI
//	   dissociation type II		 AB+C -->A+B+C		dissTypeII
//	   exchange reaction 		 AB+C -->AC+B		molEx
//	   molecular recombination	 A+B+C-->AB+C		molRe
//	   ===============================================================
//
// X as a reactant or product is used if there exists no third reactant or product
//


reactions
(

);


