/*--------------------------------*- C++ -*----------------------------------*\
| =========                 |                                                 |
| \\      /  F ield         | OpenFOAM: The Open Source CFD Toolbox           |
|  \\    /   O peration     | Version:  1.6                                   |
|   \\  /    A nd           | Web:      http://www.OpenFOAM.org               |
|    \\/     M anipulation  |                                                 |
\*---------------------------------------------------------------------------*/
FoamFile
{
    version     2.0;
    format      ascii;
    class       dictionary;
    object      schedulesDict;
}

// * * * * * * * * * * * * * * * * * * * * * * * * * * * * * * * * * * * * * //

schedules
(
    schedule
    {
        model                             agentTypeSchedule;

        agentTypeScheduleProperties
        {
            agentIds                      (A);

            scheduledTimes
            (
                0  10 
            ); 

            destinations
            (
                (100 20 0) (20 60 0)
            ); 
        }
    }

);




// ************************************************************************* //
