/*---------------------------------------------------------------------------*\
| =========                 |                                                 |
| \\      /  F ield         | OpenFOAM: The Open Source CFD Toolbox           |
|  \\    /   O peration     | Version:  2.4.0-MNF                             |
|   \\  /    A nd           | Web:      www.OpenFOAM.com                      |
|    \\/     M anipulation  |                                                 |
\*---------------------------------------------------------------------------*/

FoamFile
{
    version     2.0;
    format      ascii;
    class       dictionary;
    location    "constant/polyMesh";
    object      blockMeshDict;
}

// * * * * * * * * * * * * * * * * * * * * * * * * * * * * * * * * * * * * * //

convertToMeters 5e-8;

// Channel size in nm (100 50 50)

vertices
(
    (0 0 0)
    (2 0 0)
    (2 1 0)
    (0 1 0)
    (0 0 1)
    (2 0 1)
    (2 1 1)
    (0 1 1)
);

blocks
(
    hex (0 1 2 3 4 5 6 7) dsmcZone (44 22 22) simpleGrading (1 1 1)
);

boundary
(
    cyclicX_half0
    {
        type cyclic;
        faces ((7 3 0 4));
        neighbourPatch cyclicX_half1;
    }

    cyclicX_half1
    {
        type cyclic;
        faces ((6 2 1 5));
        neighbourPatch cyclicX_half0;
    }

    cyclicY_half0
    {
        type cyclic;
        faces ((7 6 2 3));
        neighbourPatch cyclicY_half1;
    }

    cyclicY_half1
    {
        type cyclic;
        faces ((4 5 1 0));
        neighbourPatch cyclicY_half0;
    }

    cyclicZ_half0
    {
        type cyclic;
        faces ((0 1 2 3));
        neighbourPatch cyclicZ_half1;
    }

    cyclicZ_half1
    {
        type cyclic;
        faces ((4 5 6 7));
        neighbourPatch cyclicZ_half0;
    }
)

mergePatchPairs
(
);


// ************************************************************************* //
