/*--------------------------------*- C++ -*----------------------------------*\
| =========                 |                                                 |
| \\      /  F ield         | OpenFOAM: The Open Source CFD Toolbox           |
|  \\    /   O peration     | Version:  2.4.0-MNF                             |
|   \\  /    A nd           | Web:      www.OpenFOAM.org                      |
|    \\/     M anipulation  |                                                 |
\*---------------------------------------------------------------------------*/
FoamFile
{
    version     2.0;
    format      ascii;
    class       polyBoundaryMesh;
    location    "constant/polyMesh";
    object      boundary;
}
// * * * * * * * * * * * * * * * * * * * * * * * * * * * * * * * * * * * * * //

6
(
    cyclicX_half0
    {
        type            cyclic;
        inGroups        1(cyclic);
        nFaces          400;
        startFace       46000;
        matchTolerance  0.0001;
        transform       unknown;
        neighbourPatch  cyclicX_half1;
    }
    cyclicX_half1
    {
        type            cyclic;
        inGroups        1(cyclic);
        nFaces          400;
        startFace       46400;
        matchTolerance  0.0001;
        transform       unknown;
        neighbourPatch  cyclicX_half0;
    }
    cyclicY_half0
    {
        type            cyclic;
        inGroups        1(cyclic);
        nFaces          800;
        startFace       46800;
        matchTolerance  0.0001;
        transform       unknown;
        neighbourPatch  cyclicY_half1;
    }
    cyclicY_half1
    {
        type            cyclic;
        inGroups        1(cyclic);
        nFaces          800;
        startFace       47600;
        matchTolerance  0.0001;
        transform       unknown;
        neighbourPatch  cyclicY_half0;
    }
    cyclicZ_half0
    {
        type            cyclic;
        inGroups        1(cyclic);
        nFaces          800;
        startFace       48400;
        matchTolerance  0.0001;
        transform       unknown;
        neighbourPatch  cyclicZ_half1;
    }
    cyclicZ_half1
    {
        type            cyclic;
        inGroups        1(cyclic);
        nFaces          800;
        startFace       49200;
        matchTolerance  0.0001;
        transform       unknown;
        neighbourPatch  cyclicZ_half0;
    }
)

// ************************************************************************* //
