/*--------------------------------*- C++ -*----------------------------------*\
| =========                 |                                                 |
| \\      /  F ield         | OpenFOAM: The Open Source CFD Toolbox           |
|  \\    /   O peration     | Version:  2.4.0-MNF                             |
|   \\  /    A nd           | Web:      www.OpenFOAM.com                      |
|    \\/     M anipulation  |                                                 |
\*---------------------------------------------------------------------------*/
FoamFile
{
    version     2.0;
    format      ascii;
    class       dictionary;
    location    "system";
    object      controlDict;
}
// * * * * * * * * * * * * * * * * * * * * * * * * * * * * * * * * * * * * * //

application		mdFoamPlus;

startFrom		startTime;

stopAt			endTime;

startTime		0;

endTime			500; //1ns

deltaT			0.0025; //5fs

writeControl		runTime;

writeInterval		0.05;

purgeWrite		0; //Keep all time outputs

writeFormat		ascii;

writePrecision		12;

writeCompression	uncompressed;

timeFormat		general;

timePrecision		6;

runTimeModifiable	yes;

adjustTimeStep		no;

// ************************************************************************* //
