/*--------------------------------*- C++ -*----------------------------------*\
| =========                 |                                                 |
| \\      /  F ield         | OpenFOAM: The Open Source CFD Toolbox           |
|  \\    /   O peration     | Version:  2.4.0-MNF                             |
|   \\  /    A nd           | Web:      http://www.OpenFOAM.org               |
|    \\/     M anipulation  |                                                 |
\*---------------------------------------------------------------------------*/
FoamFile
{
    version     2.0;
    format      ascii;
    class       dictionary;
    location    "constant";
    object      moleculeProperties;
}
// * * * * * * * * * * * * * * * * * * * * * * * * * * * * * * * * * * * * * //

idList          (Ar);

moleculeProperties
(

    Ar
    {
        cloudType                   polyMoleculeCloud;
        siteIds                     (Ar);
        pairPotentials              (1);
        siteMasses                  (6.633521358e-26);
        siteCharges                 (0);
        siteReferencePositions
        (
            (0 0 0)
        );
    }
);

// ************************************************************************* //
