/*--------------------------------*- C++ -*----------------------------------*\
| =========                 |                                                 |
| \\      /  F ield         | OpenFOAM: The Open Source CFD Toolbox           |
|  \\    /   O peration     | Version:  dev                                   |
|   \\  /    A nd           | Web:      www.OpenFOAM.com                      |
|    \\/     M anipulation  |                                                 |
\*---------------------------------------------------------------------------*/
FoamFile
{
    version         2.0;
    format          ascii;
    class           dictionary;
    object          blockMeshDict;
}
// * * * * * * * * * * * * * * * * * * * * * * * * * * * * * * * * * * * * * //

convertToMeters 1e-06;

vertices
(
		(0 -0.2 -0.033)
		(2 -0.2 -0.033)
		(2 0.2 -0.033)
		(0 0.2 -0.033)
		(0 -0.2 0.033)
		(2 -0.2 0.033)
		(2 0.2 0.033)
		(0 0.2 0.033) //7
);

blocks
(
	hex (0 1 2 3 4 5 6 7) channelRegion (100 60 1) simpleGrading (1 1 1)
);

edges
(
);

patches
( 
	empty
	sides
	(
		(0 1 2 3)
		(4 5 6 7)
	)

	wall
	walls
	(
		(0 1 5 4)
		(3 2 6 7)
	) 

	patch
	inlet
	(
		(0 3 7 4)
	)

	patch
	outlet
	(
		(1 2 6 5)
	)
);

mergePatchPairs
(
);


// ************************************************************************* //
