/*---------------------------------------------------------------------------*\
| =========                 |                                                 |
| \\      /  F ield         | OpenFOAM: The Open Source CFD Toolbox           |
|  \\    /   O peration     | Version:  2.4.0-MNF                             |
|   \\  /    A nd           | Web:      http://www.openfoam.org               |
|    \\/     M anipulation  |                                                 |
\*---------------------------------------------------------------------------*/

FoamFile
{
    version     2.0;
    format      ascii;
    class       dictionary;
    location    "constant";
    object      blockMeshDict;
}

// * * * * * * * * * * * * * * * * * * * * * * * * * * * * * * * * * * * * * //

convertToMeters 1;

// Channel size in nm (50 50 50)

vertices
(
    (0 0 0)
    (147.058824 0 0)
    (147.058824 147.058824 0)
    (0 147.058824 0)
    (0 0 147.058824)
    (147.058824 0 147.058824)
    (147.058824 147.058824 147.058824)
    (0 147.058824 147.058824)
);

blocks
(
    hex (0 1 2 3 4 5 6 7) mdZone (20 20 20) simpleGrading (1 1 1)
);

boundary
(
    periodicX_half0
    {
        type cyclic;
        faces ((1 2 6 5));
        neighbourPatch periodicX_half1;
    }

    periodicX_half1
    {
        type cyclic;
        faces ((0 4 7 3));
        neighbourPatch periodicX_half0;
    }

    periodicY_half0
    {
        type cyclic;
        faces ((2 3 7 6));
        neighbourPatch periodicY_half1;
    }

    periodicY_half1
    {
        type cyclic;
        faces ((0 1 5 4));
        neighbourPatch periodicY_half0;
    }

    periodicZ_half0
    {
        type cyclic;
        faces ((4 5 6 7));
        neighbourPatch periodicZ_half1;
    }

    periodicZ_half1
    {
        type cyclic;
        faces ((0 3 2 1));
        neighbourPatch periodicZ_half0;
    }
);

mergePatchPairs
(
);

// ************************************************************************* //
