/*---------------------------------------------------------------------------*\
| =========                 |                                                 |
| \\      /  F ield         | OpenFOAM: The Open Source CFD Toolbox           |
|  \\    /   O peration     | Version:  2.4.0-MNF                             |
|   \\  /    A nd           | Web:      http://www.openfoam.org               |
|    \\/     M anipulation  |                                                 |
\*---------------------------------------------------------------------------*/

FoamFile
{
    version     2.0;
    format      ascii;
    class       dictionary;
    location    "constant";
    object      blockMeshDict;
}

// * * * * * * * * * * * * * * * * * * * * * * * * * * * * * * * * * * * * * //

convertToMeters 1;

// MD domain size in nm (50 50 50) - total channel size (250 50 50) including DSMC domain

vertices
(
    //Vertices for main MD zone
    (294.117647 0 0) //0
    (441.176471 0 0) //1
    (441.176471 0 147.058824) //2
    (294.117647 0 147.058824) //3
    (294.117647 147.058824 0) //4
    (441.176471 147.058824 0) //5
    (441.176471 147.058824 147.058824) //6
    (294.117647 147.058824 147.058824) //7

    //Vertices for left coupling zone
    (280.588235 0 0) //8
    (294.117647 0 0) //9
    (294.117647 0 147.058824) //10 
    (280.588235 0 147.058824) //11
    (280.588235 147.058824 0) //12
    (294.117647 147.058824 0) //13
    (294.117647 147.058824 147.058824) //14
    (280.588235 147.058824 147.058824) //15

    //Vertices for right coupling zone
    (441.176471 0 0) //16
    (454.705882 0 0) //17
    (454.705882 0 147.058824) //18 
    (441.176471 0 147.058824) //19
    (441.176471 147.058824 0) //20
    (454.705882 147.058824 0) //21
    (454.705882 147.058824 147.058824) //22
    (441.176471 147.058824 147.058824) //23
);

blocks
(
    hex (0 1 5 4 3 2 6 7) mdZone (8 1 1) simpleGrading (1 1 1)
    hex (8 9 13 12 11 10 14 15) couplingZoneLeft (1 1 1) simpleGrading (1 1 1)
    hex (16 17 21 20 19 18 22 23) couplingZoneRight (1 1 1) simpleGrading (1 1 1)
);

boundary
(
    couplingX_left
    {
        type patch;
        faces ((0 4 7 3));
    }    

    couplingX_right
    {
        type patch;
        faces ((1 5 6 2));
    }    

    periodicY_front
    {
        type cyclic;
        faces ((0 1 5 4));
        neighbourPatch periodicY_back;
    }    

    periodicY_back
    {
        type cyclic;
        faces ((3 2 6 7));
        neighbourPatch periodicY_front;
    }   

    periodicZ_bottom
    {
        type cyclic;
        faces ((0 1 2 3));
        neighbourPatch periodicZ_top;
    }    

    periodicZ_top
    {
        type cyclic;
        faces ((4 5 6 7));
        neighbourPatch periodicZ_bottom;
    }    
);

mergePatchPairs
(
);

// ************************************************************************* //
