/*---------------------------------------------------------------------------*\
| =========                 |                                                 |
| \\      /  F ield         | OpenFOAM: The Open Source CFD Toolbox           |
|  \\    /   O peration     | Version:  2.4.0-MNF                             |
|   \\  /    A nd           | Web:      http://www.openfoam.org               |
|    \\/     M anipulation  |                                                 |
\*---------------------------------------------------------------------------*/

FoamFile
{
    version     2.0;
    format      ascii;
    class       dictionary;
    location    "constant";
    object      blockMeshDict;
}

// * * * * * * * * * * * * * * * * * * * * * * * * * * * * * * * * * * * * * //

convertToMeters 1;

// MD domain size in nm (50 50 50) (total channel size (250 50 50) including DSMC domain)

vertices
(
    (294.117647 0 0)
    (441.176471 0 0)
    (441.176471 147.058824 0)
    (294.117647 147.058824 0)
    (294.117647 0 147.058824)
    (441.176471 0 147.058824)
    (441.176471 147.058824 147.058824)
    (294.117647 147.058824 147.058824)
);

blocks
(
    hex (0 1 2 3 4 5 6 7) mdZone (20 20 20) simpleGrading (1 1 1)
);

boundary
(
    couplingX_right
    {
        type patch;
        faces ((1 2 6 5));
    }

    couplingX_left
    {
        type patch;
        faces ((0 4 7 3));
    }

    periodicY_back
    {
        type cyclic;
        faces ((2 3 7 6));
        neighbourPatch periodicY_front;
    }

    periodicY_front
    {
        type cyclic;
        faces ((0 1 5 4));
        neighbourPatch periodicY_back;
    }

    periodicZ_top
    {
        type cyclic;
        faces ((4 5 6 7));
        neighbourPatch periodicZ_bottom;
    }

    periodicZ_bottom
    {
        type cyclic;
        faces ((0 3 2 1));
        neighbourPatch periodicZ_top;
    }
);

mergePatchPairs
(
);

// ************************************************************************* //
