/*---------------------------------------------------------------------------*\
| =========                 |                                                 |
| \\      /  F ield         | OpenFOAM: The Open Source CFD Toolbox           |
|  \\    /   O peration     | Version:  2.4.0-MNF                             |
|   \\  /    A nd           | Web:      http://www.openfoam.org               |
|    \\/     M anipulation  |                                                 |
\*---------------------------------------------------------------------------*/

FoamFile
{
    version     2.0;
    format      ascii;
    class       dictionary;
    location    "constant";
    object      blockMeshDict;
}

// * * * * * * * * * * * * * * * * * * * * * * * * * * * * * * * * * * * * * //

convertToMeters 1;

// MD domain size in nm (50 50 50) - total channel size (250 50 50) including DSMC domain

vertices
(
    //couplingZoneLeft vertices
    (279.411765 0 0) //0
    (294.117647 0 0) //1
    (294.117647 147.058824 0) //2
    (279.411765 147.058824 0) //3
    (279.411765 0 147.058824) //4
    (294.117647 0 147.058824) //5
    (294.117647 147.058824 147.058824) //6
    (279.411765 147.058824 147.058824) //7

    //mdZone vertices
    (294.117647 0 0) //8
    (441.176471 0 0) //9
    (441.176471 147.058824 0) //10
    (294.117647 147.058824 0) //11
    (294.117647 0 147.058824) //12
    (441.176471 0 147.058824) //13
    (441.176471 147.058824 147.058824) //14
    (294.117647 147.058824 147.058824) //15

    //couplingZoneRight vertices
    (441.176471 0 0) //16
    (455.882353 0 0) //17
    (455.882353 147.058824 0) //18
    (441.176471 147.058824 0) //19
    (441.176471 0 147.058824) //20
    (455.882353 0 147.058824) //21
    (455.882353 147.058824 147.058824) //22
    (441.176471 147.058824 147.058824) //23
);

blocks
(
    hex (0 1 2 3 4 5 6 7) couplingZoneLeft (1 1 1) simpleGrading (1 1 1) 
    hex (8 9 10 11 12 13 14 15) mdZone (10 1 1) simpleGrading (1 1 1) 
    hex (16 17 18 19 20 21 22 23) couplingZoneRight (1 1 1) simpleGrading (1 1 1) 
);

boundary
(
    couplingX_left
    {
        type patch;
        faces ((8 11 15 12));
    }    

    couplingX_right
    {
        type patch;
        faces ((9 10 14 13));
    }    
    
    periodicY_top_couplingLeft
    {
        type cyclic;
        faces ((3 2 6 7));
        neighbourPatch periodicY_bottom_couplingLeft;
    }    

    periodicY_bottom_couplingLeft
    {
        type cyclic;
        faces ((0 1 5 4));
        neighbourPatch periodicY_top_couplingLeft;
    }

    periodicY_top
    {
        type cyclic;
        faces ((11 10 14 15));
        neighbourPatch periodicY_bottom;
    }    

    periodicY_bottom
    {
        type cyclic;
        faces ((8 9 13 12));
        neighbourPatch periodicY_top;
    }

    periodicY_top_couplingRight
    {
        type cyclic;
        faces ((19 18 22 23));
        neighbourPatch periodicY_bottom_couplingRight;
    }    

    periodicY_bottom_couplingRight
    {
        type cyclic;
        faces ((16 17 21 20));
        neighbourPatch periodicY_top_couplingRight;
    }

    periodicZ_front_couplingLeft
    {
        type cyclic;
        faces ((0 1 2 3));
        neighbourPatch periodicZ_back_couplingLeft;
    }    

    periodicZ_back_couplingLeft
    {
        type cyclic;
        faces ((4 5 6 7));
        neighbourPatch periodicZ_front_couplingLeft;
    }

    periodicZ_front
    {
        type cyclic;
        faces ((8 9 10 11));
        neighbourPatch periodicZ_back;
    }    

    periodicZ_back
    {
        type cyclic;
        faces ((12 13 14 15));
        neighbourPatch periodicZ_front;
    }

    periodicZ_front_couplingRight
    {
        type cyclic;
        faces ((16 17 18 19));
        neighbourPatch periodicZ_back_couplingRight;
    }    

    periodicZ_back_couplingRight
    {
        type cyclic;
        faces ((20 21 22 23));
        neighbourPatch periodicZ_front_couplingRight;
    } 
);

mergePatchPairs
(  
);

// ************************************************************************* //
