/*--------------------------------*- C++ -*----------------------------------*\
| =========                 |                                                 |
| \\      /  F ield         | OpenFOAM: The Open Source CFD Toolbox           |
|  \\    /   O peration     | Version:  2.4.0-MNF                             |
|   \\  /    A nd           | Web:      www.OpenFOAM.org                      |
|    \\/     M anipulation  |                                                 |
\*---------------------------------------------------------------------------*/
FoamFile
{
    version     2.0;
    format      ascii;
    class       polyBoundaryMesh;
    location    "constant/polyMesh";
    object      boundary;
}
// * * * * * * * * * * * * * * * * * * * * * * * * * * * * * * * * * * * * * //

7
(
    couplingX_left
    {
        type            patch;
        nFaces          1;
        startFace       7;
    }
    couplingX_right
    {
        type            patch;
        nFaces          1;
        startFace       8;
    }
    periodicY_front
    {
        type            cyclic;
        inGroups        1(cyclic);
        nFaces          8;
        startFace       9;
        matchTolerance  0.0001;
        transform       unknown;
        neighbourPatch  periodicY_back;
    }
    periodicY_back
    {
        type            cyclic;
        inGroups        1(cyclic);
        nFaces          8;
        startFace       17;
        matchTolerance  0.0001;
        transform       unknown;
        neighbourPatch  periodicY_front;
    }
    periodicZ_bottom
    {
        type            cyclic;
        inGroups        1(cyclic);
        nFaces          8;
        startFace       25;
        matchTolerance  0.0001;
        transform       unknown;
        neighbourPatch  periodicZ_top;
    }
    periodicZ_top
    {
        type            cyclic;
        inGroups        1(cyclic);
        nFaces          8;
        startFace       33;
        matchTolerance  0.0001;
        transform       unknown;
        neighbourPatch  periodicZ_bottom;
    }
    defaultFaces
    {
        type            empty;
        inGroups        1(empty);
        nFaces          12;
        startFace       41;
    }
)

// ************************************************************************* //
