/*--------------------------------*- C++ -*----------------------------------*\
| =========                 |                                                 |
| \\      /  F ield         | OpenFOAM: The Open Source CFD Toolbox           |
|  \\    /   O peration     | Version:  2.4.0-MNF                             |
|   \\  /    A nd           | Web:      www.OpenFOAM.org                      |
|    \\/     M anipulation  |                                                 |
\*---------------------------------------------------------------------------*/
FoamFile
{
    version     2.0;
    format      ascii;
    class       polyBoundaryMesh;
    location    "constant/polyMesh";
    object      boundary;
}
// * * * * * * * * * * * * * * * * * * * * * * * * * * * * * * * * * * * * * //

6
(
    couplingX_right
    {
        type            patch;
        nFaces          400;
        startFace       22800;
    }
    couplingX_left
    {
        type            patch;
        nFaces          400;
        startFace       23200;
    }
    periodicY_back
    {
        type            cyclic;
        inGroups        1(cyclic);
        nFaces          400;
        startFace       23600;
        matchTolerance  0.0001;
        transform       unknown;
        neighbourPatch  periodicY_front;
    }
    periodicY_front
    {
        type            cyclic;
        inGroups        1(cyclic);
        nFaces          400;
        startFace       24000;
        matchTolerance  0.0001;
        transform       unknown;
        neighbourPatch  periodicY_back;
    }
    periodicZ_top
    {
        type            cyclic;
        inGroups        1(cyclic);
        nFaces          400;
        startFace       24400;
        matchTolerance  0.0001;
        transform       unknown;
        neighbourPatch  periodicZ_bottom;
    }
    periodicZ_bottom
    {
        type            cyclic;
        inGroups        1(cyclic);
        nFaces          400;
        startFace       24800;
        matchTolerance  0.0001;
        transform       unknown;
        neighbourPatch  periodicZ_top;
    }
)

// ************************************************************************* //
