/*--------------------------------*- C++ -*----------------------------------*\
| =========                 |                                                 |
| \\      /  F ield         | OpenFOAM: The Open Source CFD Toolbox           |
|  \\    /   O peration     | Version:  2.4.0-MNF                             |
|   \\  /    A nd           | Web:      www.OpenFOAM.org                      |
|    \\/     M anipulation  |                                                 |
\*---------------------------------------------------------------------------*/
FoamFile
{
    version     2.0;
    format      ascii;
    class       polyBoundaryMesh;
    location    "constant/polyMesh";
    object      boundary;
}
// * * * * * * * * * * * * * * * * * * * * * * * * * * * * * * * * * * * * * //

6
(
    periodicX_half0
    {
        type            cyclic;
        inGroups        1(cyclic);
        nFaces          400;
        startFace       22800;
        matchTolerance  0.0001;
        transform       unknown;
        neighbourPatch  periodicX_half1;
    }
    periodicX_half1
    {
        type            cyclic;
        inGroups        1(cyclic);
        nFaces          400;
        startFace       23200;
        matchTolerance  0.0001;
        transform       unknown;
        neighbourPatch  periodicX_half0;
    }
    periodicY_half0
    {
        type            cyclic;
        inGroups        1(cyclic);
        nFaces          400;
        startFace       23600;
        matchTolerance  0.0001;
        transform       unknown;
        neighbourPatch  periodicY_half1;
    }
    periodicY_half1
    {
        type            cyclic;
        inGroups        1(cyclic);
        nFaces          400;
        startFace       24000;
        matchTolerance  0.0001;
        transform       unknown;
        neighbourPatch  periodicY_half0;
    }
    periodicZ_half0
    {
        type            cyclic;
        inGroups        1(cyclic);
        nFaces          400;
        startFace       24400;
        matchTolerance  0.0001;
        transform       unknown;
        neighbourPatch  periodicZ_half1;
    }
    periodicZ_half1
    {
        type            cyclic;
        inGroups        1(cyclic);
        nFaces          400;
        startFace       24800;
        matchTolerance  0.0001;
        transform       unknown;
        neighbourPatch  periodicZ_half0;
    }
)

// ************************************************************************* //
