/*---------------------------------------------------------------------------*\
| =========                 |                                                 |
| \\      /  F ield         | OpenFOAM: The Open Source CFD Toolbox           |
|  \\    /   O peration     | Version:  1.6                                   |
|   \\  /    A nd           | Web:      http://www.openfoam.org               |
|    \\/     M anipulation  |                                                 |
\*---------------------------------------------------------------------------*/

FoamFile
{
    version         2.0;
    format          ascii;

    root            "";
    case            "";
    instance        "";
    local           "";

    class           dictionary;
    object          couplingDict;
}

// * * * * * * * * * * * * * * * * * * * * * * * * * * * * * * * * * * * * * //

couplingName mdFOAM_2; //Unique application identifier

couplingConfigurations
( 
    OneD //1D coupling interfaces using MUI
    {
	
    }

    TwoD //2D coupling interfaces using MUI
    {
        
    }

    ThreeD //3D coupling interfaces using MUI
    {
        names (mdFOAM_ThreeD_case2_1);
    }
);

// ************************************************************************* //
