/*--------------------------------*- C++ -*----------------------------------*\
| =========                 |                                                 |
| \\      /  F ield         | OpenFOAM: The Open Source CFD Toolbox           |
|  \\    /   O peration     | Version:  2.3.0                                 |
|   \\  /    A nd           | Web:      www.OpenFOAM.org                      |
|    \\/     M anipulation  |                                                 |
\*---------------------------------------------------------------------------*/
FoamFile
{
    version     2.0;
    format      ascii;
    class       dictionary;
    location    "system";
    object      controlDict;
}
// * * * * * * * * * * * * * * * * * * * * * * * * * * * * * * * * * * * * * //

application     dsmcFoamStrath;

startFrom       latestTime;

startTime       0;

stopAt          endTime;

endTime         0.02;

deltaT          8e-8;

writeControl    runTime;

writeInterval   8e-6;

purgeWrite      2;

writeFormat     ascii;

writePrecision  6;

writeCompression off;

timeFormat      general;

timePrecision   6;

runTimeModifiable true;

adjustTimeStep  no;

functions
{
/*    fieldAverage1*/
/*    {*/
/*        type            fieldAverage;*/
/*        functionObjectLibs ( "libfieldFunctionObjectsStrath.so" );*/
/*        outputControl   outputTime;*/
/*        resetOnOutput   on;*/

/*        fields*/
/*        (*/
/*            q*/
/*            {*/
/*                mean        on;*/
/*                prime2Mean  off;*/
/*                base        time;*/
/*            }*/
/*            fD*/
/*            {*/
/*                mean        on;*/
/*                prime2Mean  off;*/
/*                base        time;*/
/*            }*/
/*        );*/
/*    }*/
/*    dsmcFields1*/
/*    {*/
/*        type            dsmcFieldsStrath;*/
/*        functionObjectLibs ( "libutilityFunctionObjectsStrath.so" );*/
/*        enabled         true;*/
/*        outputControl   outputTime;*/
/*    }*/
}

// ************************************************************************* //
