/*---------------------------------------------------------------------------*\
| =========                 |                                                 |
| \\      /  F ield         | OpenFOAM: The Open Source CFD Toolbox           |
|  \\    /   O peration     | Version:  1.3                                   |
|   \\  /    A nd           | Web:      http://www.openfoam.org               |
|    \\/     M anipulation  |                                                 |
\*---------------------------------------------------------------------------*/

FoamFile
{
    version         2.0;
    format          ascii;

    root            "";
    case            "";
    instance        "";
    local           "";

    class           dictionary;
    object          controllersDict;
}

// * * * * * * * * * * * * * * * * * * * * * * * * * * * * * * * * * * * * * //

dsmcStateControllers
(
/*	controller2*/
/*    {*/
/*		controllerProperties*/
/*		{*/
/*			zoneName			controlZone1;*/
/*			controlSwitch		on;*/
/*			readStateFromFile		yes;*/

/*			timeProperties*/
/*			{*/
/*				nSamples			1;*/
/*				nControls			5;*/
/*				nAverages			5;*/
/*				initialTimePeriod		0;*/
/*				decoupledFromWriteInterval	yes;*/
/*			}*/
/*		}*/

/*		stateControllerModel          	densityZoneController;*/

/*	    densityZoneControllerProperties*/
/*	    {*/
/*			massDensity			1.3468;*/
/*			temperature			300;*/
/*			velocity			(0 0 0);*/
/*			samplingZoneName		controlZone1;*/
/*	        typeId                 	N2;*/
/*	    }*/
/*    }*/

/*	controller3*/
/*    {*/
/*		controllerProperties*/
/*		{*/
/*			zoneName			controlZone2;*/
/*			controlSwitch		on;*/
/*			readStateFromFile		yes;*/

/*			timeProperties*/
/*			{*/
/*				nSamples			1;*/
/*				nControls			2;*/
/*				nAverages			2;*/
/*				initialTimePeriod		0;*/
/*				decoupledFromWriteInterval	yes;*/
/*			}*/
/*		}*/

/*		stateControllerModel          	densityZoneController;*/

/*	    densityZoneControllerProperties*/
/*	    {*/
/*			massDensity			1.1223;*/
/*			temperature			300;*/
/*			velocity			(0 0 0);*/
/*			samplingZoneName		controlZone2;*/
/*	        typeId                 	N2;*/
/*	    }*/
/*    }*/
);

dsmcFluxControllers
(
);


// ************************************************************************* //
