/*--------------------------------*- C++ -*----------------------------------*\
| =========                 |                                                 |
| \\      /  F ield         | OpenFOAM: The Open Source CFD Toolbox           |
|  \\    /   O peration     | Version:  2.4.0-MNF                             |
|   \\  /    A nd           | Web:      http://www.OpenFOAM.org               |
|    \\/     M anipulation  |                                                 |
\*---------------------------------------------------------------------------*/
FoamFile
{
    version     2.0;
    format      ascii;
    class       dictionary;
    location    "system";
    object      controllersDict;
}

// * * * * * * * * * * * * * * * * * * * * * * * * * * * * * * * * * * * * * //

polyStateControllers
( 
);

polyFluxControllers
(
);

polyCouplingControllers
(
    controller
    {
 	zoneName                    mdZone;
        stateControllerModel        mdDsmcCoupling;

        mdDsmcCouplingProperties
        { 	   
            molIds			(Ar);

            binModel			uniform3DBins;

            uniform3DBinsProperties
            {
                startPoint		(294.117647 0 0);
                endPoint		(323.529412 147.058824 147.058824);
                nBins			(2 20 20);   
            } 
        }

	mdDsmcCouplingSending
	{
	    sendingInterfaces       (ifs_1);	    
	    mass		    no;
	    density		    no;
	}

	mdDsmcCouplingReceiving
	{}
    }

    controller
    {
 	zoneName                    mdZone;
        stateControllerModel        mdDsmcCoupling;

        mdDsmcCouplingProperties
        { 	   
            molIds			(Ar);

            binModel			uniform3DBins;

            uniform3DBinsProperties
            {
                startPoint		(411.764706 0 0);
                endPoint		(441.176471 147.058824 147.058824);
                nBins			(2 20 20);      
            } 
        }

	mdDsmcCouplingSending
	{
	    sendingInterfaces       (ifs_2);	    
	    mass		    no;
	    density		    no;
	}

	mdDsmcCouplingReceiving
	{}
    }
);    


// ************************************************************************* //
