/*--------------------------------*- C++ -*----------------------------------*\
| =========                 |                                                 |
| \\      /  F ield         | OpenFOAM: The Open Source CFD Toolbox           |
|  \\    /   O peration     | Version:  2.4.0-MNF                             |
|   \\  /    A nd           | Web:      http://www.OpenFOAM.org               |
|    \\/     M anipulation  |                                                 |
\*---------------------------------------------------------------------------*/
FoamFile
{
    version     2.0;
    format      ascii;
    class       dictionary;
    location    "system";
    object      controllersDict;
}

// * * * * * * * * * * * * * * * * * * * * * * * * * * * * * * * * * * * * * //

polyStateControllers
( 
);

polyFluxControllers
(
);

polyCouplingControllers
(
    controller
    {
 	zoneName                    mdZone;
        couplingControllerModel     mdDsmcCoupling;

        mdDsmcCouplingProperties
        { 	   
            molIds	(Ar);            
        }

	mdDsmcCouplingSending
	{
	    sendingInterfaces	(ifs_1);
	}

	mdDsmcCouplingReceiving
	{
	    receivingInterfaces	(ifs_1);
	}
    }

    controller
    {
 	zoneName                    mdZone;
        couplingControllerModel     mdDsmcCoupling;

        mdDsmcCouplingProperties
        { 	   
            molIds	(Ar);            
        }

	mdDsmcCouplingSending
	{
	    sendingInterfaces	(ifs_2);
	}

	mdDsmcCouplingReceiving
	{
	    receivingInterfaces	(ifs_2);
	}
    }
);    


// ************************************************************************* //
