/*--------------------------------*- C++ -*----------------------------------*\
| =========                 |                                                 |
| \\      /  F ield         | OpenFOAM: The Open Source CFD Toolbox           |
|  \\    /   O peration     | Version:  2.4.0-MNF                             |
|   \\  /    A nd           | Web:      www.OpenFOAM.com                      |
|    \\/     M anipulation  |                                                 |
\*---------------------------------------------------------------------------*/
FoamFile
{
    version     2.0;
    format      ascii;
    class       dictionary;
    location    "system";
    object      controlDict;
}
// * * * * * * * * * * * * * * * * * * * * * * * * * * * * * * * * * * * * * //

application		mdFoamPlus;

startFrom		latestTime;

stopAt			endTime;

startTime       	0;

endTime			500; //1ns

deltaT			0.001; //2fs

writeControl		runTime;

writeInterval		0.01; //1ps

purgeWrite		1000; //Keep all 1000 time outputs

writeFormat		ascii;

writePrecision		12;

writeCompression	uncompressed;

timeFormat		general;

timePrecision		8;

runTimeModifiable	yes;

adjustTimeStep		no;

// ************************************************************************* //
