/*---------------------------------------------------------------------------*\
| =========                 |                                                 |
| \\      /  F ield         | OpenFOAM: The Open Source CFD Toolbox           |
|  \\    /   O peration     | Version:  2.4.0-MNF                             |
|   \\  /    A nd           | Web:      http://www.openfoam.org               |
|    \\/     M anipulation  |                                                 |
\*---------------------------------------------------------------------------*/

FoamFile
{
    version     2.0;
    format      ascii;
    class       dictionary;
    location    "system";
    object      couplingDict;
}

// * * * * * * * * * * * * * * * * * * * * * * * * * * * * * * * * * * * * * //

couplingName mdDomain; //Coupling domain name

couplingConfigurations
( 
    OneDInterfaces //1D coupling interfaces
    {
	
    }

    TwoDInterfaces //2D coupling interfaces
    {
        
    }

    ThreeDInterfaces //3D coupling interfaces
    {
        //interfaceNames (ifs_1 ifs_2); 

	interface
	{
	    name	ifs_1;
	    domainStart	(294.117647 0 0);
	    domainEnd	(323.529412 147.058824 147.058824);
	    sending	yes;
	    receiving	no;
	}

	interface
	{
	    name	ifs_2;
	    domainStart	(411.764706 0 0);
	    domainEnd	(441.176471 147.058824 147.058824);
	    sending	yes;
	    receiving	no;
	}
    }
);

// ************************************************************************* //
