/*--------------------------------*- C++ -*----------------------------------*\
| =========                 |                                                 |
| \\      /  F ield         | OpenFOAM: The Open Source CFD Toolbox           |
|  \\    /   O peration     | Version:  2.4.0-MNF                             |
|   \\  /    A nd           | Web:      www.OpenFOAM.org                      |
|    \\/     M anipulation  |                                                 |
\*---------------------------------------------------------------------------*/
FoamFile
{
    version     2.0;
    format      ascii;
    class       dictionary;
    location    "system";
    object      cyclicBoundaries;
}
// * * * * * * * * * * * * * * * * * * * * * * * * * * * * * * * * * * * * * //

cyclicBoundaries
(
    boundary
    {
        cyclicBoundaryProperties
        {
            patchName			periodicX_right;
            neighbourPatchName		periodicX_left;
            nFaces			400;
            normal			(1 0 0);
            boundaryPoints
            (
                (441.176471 0 0)
                (441.176471 0 147.058824)
                (441.176471 147.058824 147.058824)
                (441.176471 147.058824 0)
            );
        }
	
        cyclicBoundaryModel		standardCyclic;
    }
	
    boundary
    {
        cyclicBoundaryProperties
        {
            patchName			periodicX_left;
            neighbourPatchName		periodicX_right;
            nFaces			400;
            normal			(-1 0 0);
            boundaryPoints
            (
                (294.117647 0 0)
                (294.117647 0 147.058824)
                (294.117647 147.058824 147.058824)
                (294.117647 147.058824 0)
            );
        }
	
        cyclicBoundaryModel		standardCyclic;
    }
	
    boundary
    {
        cyclicBoundaryProperties
        {
            patchName			periodicY_back;
            neighbourPatchName		periodicY_front;
            nFaces			400;
            normal			(0 1 0);
            boundaryPoints
            (
                (294.117647 147.058824 0)
                (441.176471 147.058824 0)
                (441.176471 147.058824 147.058824)
                (294.117647 147.058824 147.058824)
            );
        }
	
        cyclicBoundaryModel		standardCyclic;
    }
	
    boundary
    {
        cyclicBoundaryProperties
        {
            patchName			periodicY_front;
            neighbourPatchName		periodicY_back;
            nFaces			400;
            normal			(0 -1 0);
            boundaryPoints
            (
                (294.117647 0 0)
                (441.176471 0 0)
                (441.176471 0 147.058824)
                (294.117647 0 147.058824)
            );
        }

        cyclicBoundaryModel		standardCyclic;
    }
	
    boundary
    {
        cyclicBoundaryProperties
        {
            patchName			periodicZ_top;
            neighbourPatchName		periodicZ_bottom;
            nFaces			400;
            normal			(0 0 1);
            boundaryPoints
            (
                (294.117647 0 147.058824)
                (441.176471 0 147.058824)
                (441.176471 147.058824 147.058824)
                (294.117647 147.058824 147.058824)
            );
        }
	
        cyclicBoundaryModel		standardCyclic;
    }
	
    boundary
    {
        cyclicBoundaryProperties
        {
            patchName			periodicZ_bottom;
            neighbourPatchName		periodicZ_top;
            nFaces			400;
            normal			(0 0 -1);
            boundaryPoints
            (
                (294.117647 0 0)
                (441.176471 0 0)
                (441.176471 147.058824 0)
                (294.117647 147.058824 0)
            );
        }
	
        cyclicBoundaryModel		standardCyclic;
    }
);

// ************************************************************************* //
