/*---------------------------------------------------------------------------*\
| =========                 |                                                 |
| \\      /  F ield         | OpenFOAM: The Open Source CFD Toolbox           |
|  \\    /   O peration     | Version:  2.4.0-MNF                             |
|   \\  /    A nd           | Web:      http://www.openfoam.org               |
|    \\/     M anipulation  |                                                 |
\*---------------------------------------------------------------------------*/

FoamFile
{
    version     2.0;
    format      ascii;
    class       dictionary;
    location    "system";
    object      pELandscapeDict;
}

// * * * * * * * * * * * * * * * * * * * * * * * * * * * * * * * * * * * * * //

fieldName       landscape;
startPoint	(-6 0 0);
endPoint	(6 0 0);
centrePoint	(0 0 0);
radius		2.5;
nBinsRadial	200;
avPointsPerBin	50;
rOvlp           0.01;
peReq           -2.51;
peRange         0.05; 
oneSpecie       yes;
probeId         Ar;
samplingMolId	C;
rMin		0.001;

// ************************************************************************* //
