/*--------------------------------*- C++ -*----------------------------------*\
| =========                 |                                                 |
| \\      /  F ield         | OpenFOAM: The Open Source CFD Toolbox           |
|  \\    /   O peration     | Version:  2.4.0-MNF                             |
|   \\  /    A nd           | Web:      http://www.OpenFOAM.org               |
|    \\/     M anipulation  |                                                 |
\*---------------------------------------------------------------------------*/
FoamFile
{
    version     2.0;
    format      ascii;
    class       dictionary;
    location    "system";
    object      potentialDict;
}
// * * * * * * * * * * * * * * * * * * * * * * * * * * * * * * * * * * * * * //

optimisedMesh  yes;

// Subdictionaries specifying types of intermolecular potential.
// Sub-sub dictionaries specify the potentials themselves.

// * * * * * * * * * * * * * * * * * * * * * * * * * * * * * * * * * * * * * //
// Removal order

// This is the order in which to remove overlapping pairs if more than one
// type of molecule is present.  The most valuable molecule type is at the
// right hand end, the molecule that will be removed 1st is 1st on the list.
// Not all types need to be present, a molecule that is not present is
// automatically less valuable than any on the list.  For molecules of the
// same type there is no control over which is removed.

removalOrder (Ar);

// * * * * * * * * * * * * * * * * * * * * * * * * * * * * * * * * * * * * * //
// Potential Energy Limit

// Maximum permissible pair energy allowed at startup.  Used to remove
// overlapping molecules created during preprocessing.

potentialEnergyLimit 1e-18;

// * * * * * * * * * * * * * * * * * * * * * * * * * * * * * * * * * * * * * //
// Pair potentials

// If there are r different type of molecules, and a pair force is required
// between all combinations, then there are C = r(r+1)/2 combinations,
// i.e. for r = {1,2,3,4}, C = {1,3,6,10} (sum of triangular numbers).

// Pair potentials are specified by the combinaition of their ids,
// for MOLA and MOLB, "MOLA-MOLB" OR "MOLB-MOLA" is acceptable
// (strictly OR, both or neither is an error)

pairs
(
    Ar-Ar
    {
        pairPotential   lennardJonesEqn;
        rCut            2.3e-9;
        rMin            1e-15;
        dr              1e-13;

        lennardJonesEqnCoeffs
        {
            sigma       3.405e-10;
            epsilon     1.654e-21;
        }

        energyScalingFunction   noScaling;
        writeTables     	yes;
    }
);

electrostatic
{
    pairPotential		coulombShifted;
    rCut			2.3e-9;
    rMin			1e-11;
    dr				2e-12;
    truncate			yes;
    energyScalingFunction	noScaling;
    writeTables			yes;
}


// ************************************************************************* //


