/*--------------------------------*- C++ -*----------------------------------*\
| =========                 |                                                 |
| \\      /  F ield         | OpenFOAM: The Open Source CFD Toolbox           |
|  \\    /   O peration     | Version:  2.4.0-MNF                             |
|   \\  /    A nd           | Web:      www.OpenFOAM.org                      |
|    \\/     M anipulation  |                                                 |
\*---------------------------------------------------------------------------*/
FoamFile
{
    version     2.0;
    format      ascii;
    class       vectorField;
    location    "0/lagrangian/polyMoleculeCloud";
    object      pi;
}
// * * * * * * * * * * * * * * * * * * * * * * * * * * * * * * * * * * * * * //


4298
(
(-0.168334680927504 0.324810833993926 0)
(0.179175940160544 0.00537146548736941 -0)
(-0 0 -0)
(-0 0 0.206323608282619)
(-0 0 -0.200414284904047)
(0 0 -0.172772274329551)
(0.216231770825677 -0.0434712987728387 0)
(0.134502442178317 -0.0813364611695684 -0.0936719694699297)
(0.0829816270920904 -0.106070177785938 -0.0612369884227762)
(-0.116809659810662 0.0159162965145112 0.154969680432886)
(0.0658265802676567 -0.159480684103956 0.377410907339871)
(-0 -0 0.0893846103654069)
(0.188124702884833 0.287483908921111 -0)
(0 -0 0.0889002692077128)
(0.0882465169435741 -0.0487933682084379 -0.363287999174784)
(0.285427604188384 -0.245467111192862 0)
(-0.0859969593847349 -0.020866361639089 0)
(-0 0 0.00406588043010425)
(0 -0 -0)
(0 -0 0)
(0 -0 -0.167277713679511)
(0.290269689770225 0.12539597964926 0.152641794974979)
(0 0 0.463077949127316)
(-0.289646035090414 0.0850936815876796 -0.260625895385815)
(-0.184483561874102 -0.103853317797853 0.359908630690239)
(-0.0551024504092303 -0.148967676288068 0.0987429715207902)
(-0.152765667419103 0.0964566737954641 0.163960023158974)
(-0.100033016122794 -0.0903649459769506 -0)
(0.117113983127717 0.133966887860844 -0.00994237572976797)
(0.214502876800033 0.186997103384758 0.0431274574370332)
(0.00287532396890961 -0.123630304615179 -0)
(-0 -0 0.0876193572536512)
(-0.0129556637223863 0.344302319206626 0.160400209192549)
(0 0 -0.203199406009222)
(0.0466308341784624 0.282687447711484 -0.261976990044119)
(-0 -0 0.00598430471237976)
(0.07076525915748 0.0694961651093464 0)
(-0.0904919697277511 0.0108160979135618 0.269370552879362)
(0.0889536413849965 -0.178437844911953 0)
(-0.0761740832992692 -0.0576410113663209 -0.179793267724079)
(-0 -0 0.0959773575901634)
(-0.292900256995484 0.0442497704302938 0.215979129502253)
(0.0206696179256283 -0.213349175035193 -0.269497937090889)
(-0.0261178967978055 -0.122477858552492 0)
(0.0831538847038105 -0.158748692089231 0.212258999312575)
(-0.123673084879644 -0.191504389834354 0)
(0 0 0)
(0.0440546298370387 0.149655528062504 -0.0834505161663893)
(-0.21666849171103 0.221804554075694 -0)
(0.0589303841089875 0.246848012037493 -0.027988040197722)
(-0 -0 0)
(-0.0889398348444426 -0.028970455488858 -0)
(-0.13769367903588 -0.212248017302192 0.136687876725119)
(0 0 0.15810992623991)
(0.170781949683288 -0.0467752569740751 -0.178224708651182)
(-0.0613788161565925 0.353830547989624 0.0356914367799344)
(0.0564465467740934 0.182984521419031 -0)
(-0.0842543866989763 -0.159538369354377 -0)
(0.0249847939899639 0.152309897589405 0.285367044871335)
(0 0 -0.174112089254025)
(-0.0238703267545892 0.1250106381498 0.0452129609689103)
(-0.0674456086699938 0.399528070390162 -0.00356238586993533)
(-0 0 -0.163580716242293)
(0.133532485521709 -0.0417249941977214 0)
(0 -0 -0.0958190844339688)
(-0 0 -0.0960692398374681)
(0 -0 -0.0442273815638711)
(0.0296154920222852 0.236626294265955 0.437726447712751)
(-0.124024798686709 -0.126256785669406 -0)
(0.129682019269593 -0.0115178228985094 -0.0965987977288741)
(0.066593511464978 -0.238587202680196 -0.160494254381438)
(-0.0687715374572648 -0.123094226541641 -0.15681047134953)
(0 0 0)
(-0 -0 -0.00908469907811719)
(-0.177267538370925 0.078736030189114 -0.228510446863928)
(-0.127147629378513 0.254259123540817 -0.176208545022242)
(0.211861442131345 0.0426125225225909 -0.205452330518109)
(-0 -0 0.147362393295821)
(-0 0 0.327102230700208)
(-0 -0 -0)
(0 0 0)
(0 0 -0)
(0 0 0.18466014344369)
(-0 0 0.0676873298831567)
(-0.025528293459971 0.117638511267238 0.116481382183868)
(-0 -0 -0.282833517340488)
(-0 0 0)
(-0.100965426584515 0.139528238094935 -0)
(0 -0 -0.238796189195428)
(-0.0593685590469128 -0.143401433037159 -0.406219337100283)
(-0.113019994515071 -0.0602180836624642 -0)
(-0.230928621524868 0.0264635152843514 0.17979711608957)
(-0.0110144265623586 0.187260663258577 0.125396377999937)
(-0.0568767519140518 0.327726948684983 -0.18528043476733)
(0 -0 0.0667366200888952)
(-0.0653433461289827 0.155987096941277 -0.0124962322737457)
(0 0 0.0153019247905183)
(0 0 -0.154887436120837)
(-0.0603659160869461 -0.254571034682317 0.129478391031113)
(0.102158934078524 -0.125185185972352 0)
(0.0801456433488517 0.0540058542462752 -0)
(-0.196056881263883 0.154811005184949 -0.56998350847791)
(0.0580263046917425 0.100142006539301 -0.14812924834097)
(-0.166371529303973 -0.179891332809058 -0)
(0.104519691701476 0.0681664225288448 0.189427595816281)
(0.072528895389157 0.125903765399463 -0.0659384513400894)
(0.00455714620889141 0.212589634717134 0.352202998587956)
(0.126517119861325 -0.218010441268238 -0.27678868379307)
(-0.137698076814748 0.0887672639302425 -0.35982962212246)
(0.185802786964899 -0.119964647930458 -0)
(0.138998540643381 -0.123081587242501 -0.0914331774214404)
(-0.0790389942662637 0.073128094462131 0)
(-0.0915713078744797 -0.0387240145576379 0.0633347543596423)
(0.112290136525222 0.266781851073008 0)
(-0.107240430145223 0.108921836474018 0)
(-0 -0 0.279235607211599)
(-0.169201285764162 -0.128501140037225 0.254109767768641)
(0 0 -0.125424456211802)
(-0.0814191500367363 -0.194706948224997 -0.296505712826115)
(0.0188071612324682 0.154422593863696 0)
(-0.00653987719342624 -0.127165596948861 -0.366052443154762)
(-0.0988498730777135 0.0750026574056548 -0.38204731346595)
(0 -0 0.24323818965144)
(-0 0 -0.178252935750937)
(-0.140087528668173 0.0454448383266016 -0.303049609411595)
(-0 0 0.117398015271969)
(-0 0 -0.212971367827367)
(0 -0 -0.156473334236539)
(0.0530296858826606 -0.25788177766588 -0.206359589920891)
(0.0921890443184511 0.00983723013627113 -0)
(0 0 0.151395301488753)
(0 0 0)
(0.110798925942685 0.0580690004177762 0.250269948611703)
(-0 0 0)
(-0.199336542496899 -0.0885053222620218 -0.0990352164529895)
(0.113172028369747 0.143123904442446 -0.0437335716123043)
(-0.157814969637339 0.104559745318493 0.304776368234473)
(0 -0 -0.355935394309493)
(0.0379950626716016 0.175424531763328 -0.068800381580114)
(0 -0 -0.151147266762742)
(0.175747358622248 -0.0298020782108542 0)
(-0.0391539928448481 0.191855531396119 0)
(0 0 0.436148774981569)
(0 -0 -0)
(-0.057098594415795 0.25309082846712 -0.202046393710439)
(0.197963315277763 0.206002041526652 0.494722276409285)
(0 0 0)
(-0.0739508949970803 0.0728272660856997 -0.109857462785924)
(-0.0507328639829504 -0.192636076669848 -0.095435941932674)
(-0.231325892060859 -0.0477128081544881 0)
(0.0075872276004611 -0.30822177720382 0.096468039514719)
(0 -0 -0)
(0 0 0)
(0.281454751630787 -0.0352673867103128 -0.00526138202056281)
(0.064405468384716 -0.265201022428873 0.0724218489666843)
(0.0547858794973443 -0.091778609003973 -0.105860180783814)
(-0 0 0)
(-0.0288066824840849 -0.248940774870843 0)
(0.0655564894323611 -0.195214272264708 -0.164595861258135)
(0.207581080417909 -0.167402460825126 -0.223058085527849)
(-0.121284320822268 -0.00520229200398129 -0)
(-0.0724462263748805 0.0856182817435526 0.19104911861798)
(0.182227685286469 -0.0118016572146131 0.135276200788825)
(-0 0 0.203275972498817)
(-0.12204379452254 0.15622810454544 0.0302270484568215)
(-0 0 -0.138614937528881)
(0.045780311796867 0.14729826801466 0)
(0 0 0.337382559489313)
(0.00754011096616995 0.48990580988715 0.0917198188376647)
(-0.0796528952304538 0.0708603945934177 0)
(-0 0 0)
(0 -0 0)
(0.198133949043052 -0.23218739796454 0.0128557947375763)
(-0.00648406513641466 -0.123421019044839 -0.0160075880915464)
(-0.144254828782892 -0.00875661468402208 -0.22444446097605)
(0.123583227176741 -0.203334250881365 -0)
(-0 -0 0.145427650395182)
(-0 -0 0)
(0.0689082633860241 0.073819466892009 -0.25144023929185)
(0.0290413941507752 0.325882157484818 -0.214443046905164)
(-0.144539846867766 -0.291648265006281 0)
(-0.116071968337887 -0.116808044562225 -0.125841856943638)
(-0.183113509388555 -0.174064236641562 0.153518253926871)
(-0.002932831005854 0.118458639368235 0.54175538453365)
(0.249595340668113 -0.113556404497214 -0.247902829944293)
(0 -0 0.139726046540332)
(0.142589427001782 -0.26684119698925 -0.184706116419757)
(0.0173851654265982 0.283339339163624 -0.160766917477051)
(-0 -0 0.118013672964911)
(-0.130016368352872 0.080566085905872 0)
(-0 -0 -0.119595508535541)
(0.0334109506750556 -0.11008679956408 0.276293647879939)
(-0 -0 0.153468769157986)
(-0 0 0.327153012978118)
(0.0872041548811593 0.133892415354924 -0.127376234848941)
(-0 0 -0.174775723925815)
(-0.069443452143384 -0.154763325083598 -0.229889606953057)
(0 -0 -0.185027967809964)
(0.0120962737715917 0.408336013464378 -0)
(-0 0 -0)
(0.176657937034999 -0.116279249548875 -0.413204026804817)
(-0.0840731422357 -0.0531869677628696 0.177849202610457)
(-0 0 0)
(-0.130375534483666 0.208473163655954 0)
(0.0520296158309183 -0.26682025009064 0.179681294338445)
(0.132513573699705 0.218338982392562 -0)
(-0 -0 0)
(-0.167053006534746 -0.0276236143957035 -0)
(-0.0240684547224099 0.317554234825495 -0.462900087575689)
(0.0667024830895758 -0.0886630525491191 -0.129937044715013)
(0.169023129775948 -0.0218502852204024 -0.137640816536958)
(0 -0 -0.197020307466956)
(-0.0435806652944341 -0.26342032102476 -0)
(0 0 0)
(-0.162725419132797 -0.0550216942959934 0.0750554362466532)
(0.170764843660522 -0.0802833261712623 -0)
(-0 0 0.150465450362738)
(0.173388321072675 0.0895218268838177 -0.276411793221916)
(-0 -0 -0.114466740880632)
(-0.151868640336818 -0.163996861430629 -0.130155132837359)
(-0.109246524588737 0.0396519246262899 0)
(-0.102408053616205 -0.174680247432546 0.0469743033204181)
(0.0494637602926117 -0.149244131110721 -0.0840493565446198)
(-0.165354220226443 0.0317301535508722 -0.29602788774576)
(-0.106534313227081 0.0530340526565922 0.251568599029623)
(0.0786465724581667 0.12271813366146 -0.0826684080775869)
(-0 -0 0.187908168536953)
(0 0 0)
(-0.0751781665446084 0.0624673312402591 -0)
(-0.116075980892156 -0.000265826436598763 -0.210016144051688)
(-0.110686720783462 -0.145036437583681 -0.0980098676218245)
(-0.176362453428429 -0.0548112951585144 0)
(-0 0 -0.141441208375499)
(0.0859194926504535 0.0431785318612201 0)
(-0.113001335805013 -0.100490848425361 -0.0958154780488152)
(0.0294550057488042 -0.443541416139278 0.241413399800931)
(0.0270096540025625 -0.124248141421081 0.0120672575354529)
(0.158081223322678 -0.114463708241048 -0.0999330527722006)
(0.0634745302140229 0.0913708538944865 0.087153729449226)
(-0 0 0.354214621394781)
(0.132414004965 -0.239534528162621 -0.273679839222173)
(-0.256050494853287 -0.13337988705577 -0.138804267278473)
(0.114313167218143 0.274931741742437 -0.0891836960213615)
(0.0906976497164045 0.0324556789902747 -0)
(0.0814953154446198 -0.264475429106232 0.0669041075972927)
(0.0262502053386193 0.245647027636681 0.121690015548626)
(0.0784265264497708 -0.0505055220346021 -0.145680354014267)
(0.0543881078138878 -0.135910296149964 0.0175504729042444)
(0.116920813816747 0.0102657384617162 0.142983587945037)
(0 -0 0.325158824578089)
(0.0292085809255294 0.123821051278293 -0.296972894158665)
(0.0703060380186001 -0.157283461266117 -0)
(-0.133160303389523 0.200223847927489 -0)
(0 0 -0.241854155066938)
(-0.0701722492876195 -0.335440892704893 0.30710502607861)
(-0 0 0.201526312867965)
(0.050160614795042 0.4137375207775 0.286915376742172)
(-0 -0 0.218823991401)
(-0.0589279205837936 0.229443680857241 0)
(-0.18540912791321 -0.100166138511248 0)
(-0 0 -0.193683411671928)
(0.0545210760292305 -0.332883502348173 -0.165607098761847)
(-0.0947074469397496 -0.164886097985179 0.136676848596047)
(-0.0467599529280719 0.357754140355013 -0.194604329153903)
(-0.171607835443977 0.124812028128544 0.0478796604508509)
(-0.0868763169126027 -0.107507737820268 -0.0649044320369267)
(-0.0542109468114644 -0.228276688998049 -0)
(0.0511996116592825 0.235838269129126 -0)
(0.1773392798409 -0.0782264899114306 0)
(-0.0251663065562188 -0.121103764091457 0.125876263092332)
(-0.0965405393734972 0.0862699235707771 0.196816978191368)
(-0 -0 -0)
(0.00572732617016112 0.269800434010326 -0.285460154568987)
(0 -0 0.0964324958587273)
(-0.00682148160082622 -0.119768805358429 -0.217116875528372)
(-0.00902271962503316 0.20916160583538 -0.19925257233168)
(0.141987384276963 -0.164433214589201 -0.126528111118638)
(0 -0 0.199105731323034)
(-0.343180826320594 0.0703019401023237 -0)
(0.149353404113342 -0.00453098998529709 -0.251547647926367)
(-0 0 0)
(0 -0 0.120560678201519)
(0.0347840500145953 -0.461248260510495 -0)
(0.128857251331175 -0.0819750843640018 0)
(0.0410510393977629 -0.20782818318062 -0)
(0.220473686174013 0.0448071979715993 -0.118064669111703)
(0 0 0)
(0.0584997144313171 -0.08813808786208 -0)
(0 -0 0.0823677874366365)
(0 0 -0.219412660949891)
(0 0 -0.192358711143304)
(0 0 0.284018621957545)
(0.0322123373592716 -0.220748820324284 0.0332485156342292)
(0.13154390192927 -0.176032142766211 0.0629385632539958)
(0.0839520191338793 -0.0378979239151898 0.128073207709746)
(0.150786385302829 0.075337284012235 0.101508860493655)
(-0.124129040080894 0.213255790099685 -0.0579035173113721)
(0.0416868024032233 -0.110935270016481 -0.42777249976645)
(-0.105133772840866 -0.0581908435848179 0.18229865060951)
(0.194278951762053 0.162530740260666 0.175180768473981)
(0 -0 0)
(0 -0 -0)
(-0.0645137219950555 0.0964344251855287 0)
(0 0 0.228501686857006)
(0.105955942892733 0.0661639737851286 0.22880407079341)
(-0.0194666361822336 0.181362489860037 0)
(0.149632007125175 0.156924053672791 -0.197065194383522)
(-0.119314309345467 -0.236359613746933 0.0701584143587197)
(0 -0 0)
(-0.0918442906762216 -0.291251379777255 -0.252572014250924)
(-0.205600583525076 -0.0244552050589494 0.119846765233249)
(-0.0777030006762903 0.196135114337839 -0.00251464525868151)
(-0.129024148059574 0.0897961407046782 -0.249423568518409)
(-0.128301344300031 -0.159431757203098 -0)
(-0.0914754952931803 0.030816309678869 -0.107637123385034)
(-0.10958860160293 -0.114647724530207 -0.371584112948139)
(0.0457082956031431 -0.244730501094887 -0.206705772011709)
(-0.114014149772446 0.0574308373480549 -0.073096603846744)
(0.153382899834644 -0.290615171262243 -0.0411945157133637)
(-0 0 0.406036837009653)
(0.0885960212939962 -0.0470175719438784 0.219493630271195)
(-0 0 0)
(-0 -0 -0.131930204458855)
(-0 0 -0.142822946116425)
(0.058110089934051 0.198664079820264 0.0290128681234151)
(0.0734668792352965 0.243703544486959 -0.0391074254561288)
(0.168312272878514 -0.206745917210781 0)
(0.115632441503529 0.00915441000875099 0)
(0.018320029197473 -0.126934057557311 -0.20558842695813)
(-0.102385938722797 0.0643911084738315 -0.145584835244018)
(-0.00101680614430517 0.220355692946548 -0.160633430479806)
(0.145509123685947 -0.0931333466148733 0.0322028061148187)
(-0 0 0.156799428516178)
(-0.144973463963423 0.161193526532599 0)
(0.0204519231425687 -0.177399008289451 0.161282726955704)
(0.0839694586959479 -0.0374039463200272 0)
(-0.120774670939795 -0.131040753187084 0.227353079202482)
(0.0696975754583515 -0.198386161477923 0.00620710451720212)
(0.109851148837384 -0.32974919724205 -0.148514516788042)
(0.0893281080710133 -0.246674451056962 -0.136479835161161)
(-0.285112559076679 0.110579269414834 -0.0387897369221615)
(-0.0283221129233035 0.160092816068786 -0.254425772976609)
(-0.00237448951543074 0.457122721590712 0)
(-0.0216595098266387 0.160250738430637 0)
(0.0266823989156284 -0.236638107143619 -0.0265830156961851)
(-0.154745732451152 -0.119159591765742 -0)
(0 -0 0)
(-0 -0 0.157242383063218)
(0.159849737175779 0.108320193462074 -0.0600320579582401)
(0.0831133274869109 -0.118182717874505 0)
(0 0 0.24024517614884)
(0 -0 0.12885293111559)
(-0.11907094009977 -0.268248417712294 0.224299578595496)
(0.133479214807624 0.0700268028706633 -0.208322692648386)
(0.114125544829372 0.198387983545033 -0.0578487123172723)
(0 0 -0)
(0.161695956824718 0.31216761870447 -0.148452890320889)
(-0.0770049112046236 0.0573503902703734 0)
(-0.129838881278126 0.0996528550291359 0.0237251087875297)
(-0.175358461274337 0.242025144092607 0)
(-0 -0 0)
(0.258931406805044 -0.285132997083835 -0.0864476972758463)
(-0.25716823837287 -0.0720274730265257 0)
(0 -0 0.00455373326638745)
(-0 0 -0.176870453847333)
(-0.155219316517008 -0.0937792824135738 -0)
(-0.151346067490482 0.0434722773319511 -0.0335785367908074)
(-0 0 -0)
(-0.184853488871875 0.00417582621251986 0.202328216277127)
(0.0889383778026934 0.310697131043106 -0.3015569889544)
(0 -0 -0.0341637830055903)
(-0.232343560735289 0.0349936607273852 -0.0955778596451451)
(-0.0831815573114368 0.0472148977917189 0.189097167310975)
(-0.214879480250633 0.17831643566114 -0.372107974528138)
(-0 0 -0.26248053797451)
(-0 -0 0.205146089897772)
(-0.135097493005797 0.330990232710796 0)
(0 0 -0.0180667301530966)
(-0.0867576003661553 -0.0390373510437607 -0.189058605856532)
(-0.198510313362484 0.00660296831892261 0)
(0.195538930209496 -0.101511201974104 -0.0528520137827379)
(0 0 -0.0221365194396884)
(-0 -0 -0.0185214486961444)
(0.227856829124403 -0.0571705475924658 0.164835966405394)
(-0 0 -0)
(-0.0204746694331642 -0.15736244540146 -0.293388644473424)
(0.0595966607040822 -0.229164928517566 0.0475331051330142)
(-0 -0 0)
(0 -0 0)
(0 -0 0)
(-0.194368564155234 -0.0106095112712251 0)
(-0.190650611424184 0.038234936110821 -0)
(-0 0 -0.24246460459798)
(0 0 0.0366301921200215)
(0.0881355884546884 0.00505717370841838 0.300479007593744)
(0.181487008114599 0.0524050444448712 0.128707770258968)
(0.151902665639779 -0.0839431564968663 0.312392728384617)
(-0 0 0.173401344408734)
(-0.0927127180648024 -0.0325935852149575 0.0884211270851803)
(-0 0 0.194714466722577)
(-0 0 -0.116544728366848)
(-0.368775245608408 0.05048291586087 0.0911507360782707)
(-0.00460295233461592 -0.118898982883586 0.125385916946458)
(-0.152446167973416 0.0279094853525648 0)
(0 -0 -0.25878258320798)
(-0.0804367574261557 -0.122209157379387 -0.225839084441568)
(-0.223895392508885 -0.0403324095155626 -0.145903216224989)
(0 0 -0.303942013886067)
(0.0644793407948947 0.140213676841473 0.0501054195012401)
(-0.308179633680143 0.277510722810758 -0.0278471804766248)
(-0 -0 0.181590902089389)
(0 0 -0.188972814411715)
(0.0405291222220424 -0.288262946491079 0)
(-0.257556044174933 -0.0352033540288505 -0.308504078359161)
(-0.176242928267401 0.0112953601440099 -0.402553995042848)
(0 -0 -0)
(-0.0337447053260995 -0.116209585102548 -0)
(0.230218121876508 -0.132820864159225 -0)
(-0 -0 -0)
(0.0601950737859941 0.137618286129289 -0.0928228529990332)
(0.0608095171782167 0.0927640049566265 -0)
(0 0 0.00174949661682353)
(0 -0 0.0815443539940232)
(0.0979046043658114 0.258642069491158 0.231236441379476)
(-0.11180844985843 -0.0923316482223016 0.11444700792202)
(0.0625631914099992 -0.155886429928807 -0.137095417355517)
(-0.195072265675473 0.162362393903888 -0)
(0 0 -0)
(0 0 0)
(0 0 -0)
(0.152346964576236 0.0830319422992708 0.149879178776283)
(0.0470219912739849 0.234148239017644 0.213926535395017)
(0.0731007408663531 -0.0715233958786405 0.137106506863253)
(0.266092940722265 0.026145031026298 -0.247915433375812)
(0.171956168306317 0.00544955124264659 -0)
(-0 0 0.332565135987756)
(0.0224526417228706 0.20946242920064 -0.127261624076008)
(-0.0730398151916639 -0.0733156326509243 0.128524499843635)
(0.0530309627969325 0.107155518745003 0.269839404949071)
(-0.191468252864144 -0.0819755943441267 -0)
(0.114774457219636 -0.0439000826467908 0.309158278055233)
(-0.0136234861242384 0.199396274186154 -0)
(0.0337572665835932 -0.173477197921977 0)
(-0.15217654489636 0.220123108408998 -0.0831132707899745)
(0.288930100058481 0.0717271990047177 -0)
(0.129099645345639 -0.0460994181625283 -0)
(0 -0 -0)
(-0.0338942371188817 -0.238215033885543 0.193817827276572)
(-0 -0 -0.15466842535327)
(-0.152736270676201 0.00841956754128496 -0.217979404577069)
(-0.207998964519375 0.233751852077677 -0.0758949655313874)
(0.172272849070092 -0.0560048408084157 -0)
(-0.0905462638827384 0.0413305222698417 0.166922910861907)
(-0.046596728612102 -0.171039773791776 -0)
(0 0 -0.218401937160244)
(0.108552137672323 0.046150129926437 -0)
(-0 0 0)
(0.101664343122364 0.15684653901858 -0)
(0 0 -0.174984332936813)
(0.11656889716776 0.0138094020890937 0)
(0.0729700107213403 -0.271703134051494 -0.197634803421823)
(0.0980625900334438 -0.080915425170168 -0.217149593868114)
(-0.182899869372943 -0.109581360974321 -0.0362680378615049)
(0.0471403633969608 -0.113800503941483 -0)
(0.276054854985597 0.0486099854050617 0.228191329236312)
(0.155037623119981 0.0188557114111013 0.172790891269492)
(0.111862893208841 -0.0513485348425635 0)
(-0.116175872230199 -0.168756180441079 -0.156929888119925)
(0.0836468604893943 -0.205856792635924 -0)
(0.0907142661487127 -0.0367064425354762 0.182203334160233)
(0 0 -0.323411172355791)
(-0.17943518190295 -0.0926673933194347 0.0178946769922022)
(-0.0260124769137446 0.114884813041638 0.116444820860374)
(0.0951535582508277 0.0172580402672542 0.21246618006155)
(-0 0 -0.186300273344312)
(0.155942121662231 0.0332519769246133 0.0899878904214348)
(-0.0639183458925028 0.134997613378511 0.0422209926714353)
(0.248144665090734 0.14829513389022 0.284868337228011)
(0.0167314534143345 -0.176815609420654 -0)
(0.129304752837976 -0.115351474430011 -0.268286044103241)
(-0.00253295301703209 0.181107785617908 0.114660778592006)
(-0.0506276571583433 0.288383907637305 0.00588017524964319)
(0 -0 -0.0523811977457907)
(0 0 0.0426823173872133)
(0.148064575607629 -0.0623362849215854 0.145769027464687)
(0.13656375050044 -0.309646777949592 -0.118896782040217)
(-0.0399696706743624 -0.106049409500036 0)
(0.0900501700472997 -0.00607191846082609 0.0988028516377761)
(-0.0269968729606471 -0.152243224384994 0.0307356083788946)
(-0 0 -0.187190664361108)
(-0 0 -0.221376496808791)
(0.0134091925133658 0.180573194115377 -0.260515876534602)
(0 -0 -0.0084433769007499)
(-0 -0 0.0952430616800493)
(0.0652986717967992 -0.0933116891262827 -0)
(0 0 0)
(-0.130081369704165 0.196821338580861 -0.0917512976269691)
(-0.069070949632647 -0.395107481843179 -0.0209362057326032)
(-0.0320008316742313 0.177187107609077 -0.305291009326817)
(-0 0 0.14749126219398)
(-0 -0 0.043804274863676)
(-0.101576767479011 0.177887664727294 -0.340284970003675)
(0.122228725061378 0.175487090460913 0.202744929704121)
(-0.088525159373808 -0.154714911120323 -0.0625870886885633)
(-0 -0 -0.32352762897933)
(-0.127400075622388 0.105362396470639 -0.321842525088029)
(0.189964904841487 -0.122077093545905 0.125979974945254)
(0.0196685219701965 0.16214353927909 -0)
(-0.0331848628304487 -0.284965763596585 -0.219333117769382)
(-0.147337176976066 0.139865074477698 0.256323474318647)
(0.12762545836688 -0.0639032138784781 0.689370510415048)
(0 -0 0.327041579584804)
(-0.111965473524452 -0.143137569793861 -0.154058730282044)
(-0.0300477790402974 0.11168643287397 0)
(-0 -0 -0.14317257794854)
(0.00968037458415967 0.119224418235226 -0)
(0 -0 -0.0986503386215157)
(0.00204687996502246 -0.167066307902669 -0)
(0.0628418275418051 0.0902872218011225 -0)
(-0.030898721866008 0.121753199955434 0)
(0.0816661876667014 -0.149406045967186 -0.131118344144085)
(-0.0681571704613685 0.128855328118726 -0)
(-0 0 -0.135115954607016)
(-0 -0 -0.13345217381804)
(0 -0 0)
(0.218954880470572 -0.0801288206083102 0.0610090155405189)
(-0 0 -0)
(0.0207709030165166 0.247130734057186 -0.245582242815299)
(0.0365696811202561 0.380680904122971 0.0213068611028974)
(0.0674193475155957 -0.239048997623935 -0.24189041445927)
(-0.163047892290942 -0.163068598739423 -0.135333714302122)
(0.116287764116603 0.195301294117939 0.307310932022134)
(-0 0 -0.0276965215386933)
(0.00143924738697089 0.26111107442222 -0.346065328130512)
(-0.233874460412925 0.15772547771523 0.141139558154778)
(0.154112077525903 -0.0201418901814421 -0.239657766033462)
(-0 0 0.190305424425938)
(-0 0 -0.327621764996611)
(0 0 -0.388147755940855)
(-0.196314014749487 0.0987066518092372 0)
(-0.110074725519365 -0.0495743069680194 0)
(0 -0 0.208074800804423)
(0 -0 0.0474554414926337)
(-0 -0 0)
(0.266107189038909 0.322971393125664 -0.224277738561245)
(-0.0897733636942966 0.0286909060555525 -0.0116633594920529)
(-0 0 -0)
(0.0554519919690061 0.281621100960722 -0)
(-0.0233260002115094 -0.212023655230327 -0)
(-0 0 0.0513012072296629)
(0.198349551875633 -0.0381277285918299 0)
(0.028083663074387 -0.111838247115735 0.0201963397563346)
(-0.0123173177330943 0.119153092237471 0.221843023620722)
(-0.0744506039510498 -0.065555445973208 -0.222146538669208)
(0.106122288833775 -0.171923851255322 0.0720800911457817)
(-0 -0 0.12425827183798)
(-0 0 -0.198020380433043)
(-0.154138569301525 0.0198028559274292 0.0431620419407167)
(-0 0 0.153020221952735)
(0 0 -0.139825848310871)
(0.0233241005118999 0.162064568486637 -0.405751908818176)
(0.087020960746989 0.247165351448966 -0.128850153857329)
(-0.0363823197932703 -0.119983653141723 -0.263047835703786)
(0.152463687895967 -0.180047079017309 0)
(0.0558374672117187 -0.184186022850019 -0.133491510963682)
(-0.0255415504759541 0.191269091803219 -0)
(-0.176170653710686 -0.122371753739309 0)
(0.181557307572116 -0.259573670761911 0.196737650017156)
(0.135267802536532 0.0605141260917594 0.160269609170736)
(0.101415045811466 -0.166062951656453 0)
(-0 -0 0)
(0.0986573925938904 0.084201716474733 -0)
(0.160866535859943 -0.0604645459137294 0.0171216064728636)
(-0 0 0.304535248533955)
(-0.114585945309359 -0.234501758847741 0.282568309157654)
(-0.0990581402188077 -0.226170998917129 -0.121550306547552)
(0.0305492853822066 -0.271605136380598 -0)
(0.0633533397351773 0.0927193201699408 -0)
(0.151022124780422 -0.0567549106660501 -0.0653125323860006)
(0 -0 -0.0519059368223226)
(0.115651133558279 0.085575728720617 -0.035513117908066)
(0.0701975749416327 0.262628557193405 -0)
(-0.072323434412385 0.0751756395275704 0.0117157506957278)
(0 0 0.151147535831456)
(0 -0 0.286278160454047)
(0 0 0.154975758525907)
(-0 0 -0)
(0 0 -0.362024053007059)
(-0 -0 -0.316544090304735)
(0 0 -0)
(0.0780623274409124 0.12231546480368 0.154460865548544)
(-0 -0 0.429690792703389)
(-0.00983095919921426 -0.158922234924238 -0)
(-0.0768805513403813 -0.0756409365602507 0.28824316129661)
(-0.00210868012026783 -0.282825400969254 -0.196966931223358)
(-0.166567579865768 -0.0309037297641686 0)
(-0 0 0.152713110989743)
(0.0853866151705296 -0.16368485470712 -0.121736576662367)
(0.037395759478407 0.115160593189945 0.248119137989803)
(-0.12027032606277 -0.113354271037077 -0)
(-0.0280715818514524 0.191432811688789 -0.301900002284604)
(-0 0 -0.415387004052416)
(0.223942051784893 0.0947910106154901 -0)
(-0.137318948243356 -0.23889106594373 -0.196500107570399)
(-0.0346790200772016 0.11116853042594 0.150552618009878)
(0.234870609534843 0.00571554725960421 0.443819836260774)
(-0 0 0.236438047750348)
(-0.177675386429155 -0.0930258690170488 0.228798221727805)
(-0.12625777765265 -0.117538829740039 0)
(0 0 0.21354768898425)
(-0 -0 -0.130327569146537)
(-0 -0 -0.215319885271094)
(0 -0 -0.18900363359595)
(-0.316792962240363 0.408687643796241 -0)
(-0.196069937483015 0.0209898249650776 0.032261810761054)
(0.0554508759135905 0.0992052841885989 0.144454186852446)
(-0.0849507260649537 0.0583921175142599 -0)
(0.114939294354022 -0.0542576652505197 -0.158728980742979)
(-0.111075577355082 -0.331241781859612 -0.201510578099929)
(0.221519799945031 0.0623530536050605 -0.23961594654519)
(0.0689731235804568 -0.073706573817378 0.249688041843823)
(0 0 0.118945979010665)
(-0.149107399971411 -0.0826520907994062 0.162629482530738)
(-0.0435502856653296 0.109068545250566 0)
(-0.0757490592417323 0.432540569921847 0.192073006709499)
(0.0677399981208517 0.0831063654142171 -0.0792372832998724)
(0 -0 0.0197042826724497)
(0 0 -0.0758409267627981)
(-0 0 -0)
(0.0272975501299856 0.403985577925599 -0)
(0.104886144840609 0.11094381206561 -0)
(0 0 -0.223723371278924)
(-0.137825823002174 0.163495487956471 0.0706870853387933)
(-0.123405827015172 -0.150088367774089 0)
(-0.102230298147064 0.0676048073197834 -0.0121486472635362)
(-0.23117987308832 -0.172193832884223 0.362818521495683)
(0 0 0.431997980146225)
(0 0 -0.221061640238958)
(-0.181912432226578 -0.0251281182231872 -0.506459762933835)
(0.0323970410005817 -0.15260889588869 -0)
(0.184488313299498 0.0480155672377213 -0)
(0 0 -0.0343067514743414)
(0.00757011699855112 -0.13049347264265 -0.200306214818078)
(0 0 -0)
(0 -0 -0.356294342655973)
(0.0737262323845589 0.224751206482673 -0)
(-0 -0 -0.00742387566710371)
(-0.156931679664947 -0.0993158706415888 -0)
(-0.141899522024122 -0.0580104745946693 -0.216454005741954)
(0 -0 0)
(-0.0251125440613941 0.116591256011517 0.270245865418508)
(-0 0 -0)
(0.133489287227313 0.178178634726952 -0.0809336632685829)
(-0.22588698446805 -0.0541686807991776 -0.0574699941372475)
(0 -0 -0)
(0 -0 0.141745252688716)
(0.380528341898612 -0.0867405844742714 -0)
(-0.0760635835926522 -0.0599164982747069 0.123244381405156)
(0.146179762412996 -0.0680921637505021 -0.251324498046117)
(-0.264091526093337 -0.119084909968315 -0)
(-0.00248982834700385 -0.120856400396981 0)
(-0.0140546430066086 -0.202978446609197 0)
(0.120586841612496 -0.068785621575823 0.0333064046230369)
(0.163581769333212 0.0562721575591386 -0)
(-0 -0 -0.117482120390687)
(0 0 0.18456564113399)
(-0.0766152752005774 -0.0752527080980337 -0)
(-0 -0 0)
(0.0403497773830384 -0.278693447614244 0.358850546803253)
(-0 0 -0)
(0.0807545037226774 -0.0507022654402883 0.365989908301083)
(0.0805502123190687 0.0465052507094255 -0.0911299324278635)
(-0.0142956226394537 0.128904393886157 0.240094939323969)
(-0 -0 0.19248966199244)
(0 0 0)
(0.101918403069355 -0.233525842105327 -0.267909666304977)
(0 -0 -0)
(0.104043245282243 0.186818578602997 0)
(-0.0871565682495494 -0.138822086178042 0.293731709476049)
(0 0 -0.144478457942455)