/*--------------------------------*- C++ -*----------------------------------*\
| =========                 |                                                 |
| \\      /  F ield         | OpenFOAM: The Open Source CFD Toolbox           |
|  \\    /   O peration     | Version:  2.4.0-MNF                             |
|   \\  /    A nd           | Web:      www.OpenFOAM.org                      |
|    \\/     M anipulation  |                                                 |
\*---------------------------------------------------------------------------*/
FoamFile
{
    version     2.0;
    format      ascii;
    class       vectorField;
    location    "0/lagrangian/polyMoleculeCloud";
    object      v;
}
// * * * * * * * * * * * * * * * * * * * * * * * * * * * * * * * * * * * * * //


4298
(
(0 -1.44898949702637 -1.75299007106301)
(0 -1.97397218456815 -1.24613105552462)
(0 0 0)
(-1.89926510598716 0.830488189713767 1.33701439728993)
(2.25020352335718 0.913789586625855 3.27898733115395)
(1.40472596326057 -2.1110198964617 2.54905053944273)
(0 0.226424114660707 3.00400402542447)
(-2.14749627787614 0.871694198686493 4.06713915563523)
(2.44335056283613 0 0)
(-1.21229912776681 1.72541690083704 3.46197878373246)
(2.18383027127506 0 0)
(2.43769743056878 1.13300505136851 2.2754992849121)
(0 1.59473214908895 -0.120814995507243)
(2.35574845584461 1.31212946320029 0.844182990124017)
(-1.55386152783413 0.624604807589 1.86523029141322)
(0 -2.06680171289542 -1.48760511768439)
(0 0 0)
(2.30202160500777 0 0)
(0 -1.44887774530444 -0.278112272716496)
(0 0 0)
(2.55875955358946 0 0)
(0.475385736609087 -0.604964471769593 -2.62943554848525)
(-0.813623772253818 -1.9670345639184 2.60917768048098)
(-0.0893299818209143 0 0)
(-2.82360278905096 1.55158731384763 0.281430545501896)
(2.57580417073465 0 0)
(1.99216203568561 0 0)
(0 -2.76167652620741 -0.806006501043275)
(-3.1458187592255 0 0)
(-1.87637837864136 -4.4448965110468 -0.804573631093192)
(0 -1.70855641493355 -1.16538314731909)
(1.21029662019397 -2.0671579972461 1.47027211438535)
(1.10863145906573 -1.47116445161236 0.242283430200801)
(-1.89001040840234 -2.37182741124683 -0.811033070182766)
(-1.4180288792533 5.22708987301376 -1.89629472512275)
(1.61741423033605 -1.93772914545963 1.11794797390866)
(0 -5.19858696490575 0.418664640893777)
(-0.99844343273437 -1.97811628905314 0.603925706225247)
(0 0 0)
(-1.65134125117669 2.56224896499175 0.537549445313911)
(2.14463176016334 0 0)
(3.22683026585478 -1.651331193645 -3.26400991560425)
(-2.75324959598287 -3.87683496977112 -1.43829240021947)
(0 4.75805513348134 -1.0885031636206)
(1.59905671555578 1.15857801775398 1.71301884437847)
(0 -1.17514411041313 2.90864641286033)
(0 0 0)
(2.04605705382659 0.681459277469821 1.93679142549411)
(0 0.49016284873823 2.25130307944232)
(2.77211008433015 -1.36916845176234 0.700149004136736)
(0 0.931687005192754 -1.26832770425577)
(0 3.60233818747388 -1.0603049267048)
(0.619787699578429 0 0)
(-1.95842681990693 2.59292434399093 -1.16411382580471)
(-1.00527306347778 0 0)
(-1.9654311982764 1.64453696164296 1.49484660838856)
(0 0 0)
(0 2.02000723965938 0.238775817609565)
(-0.289295050774586 1.910307698743 -0.782109602289469)
(1.55937604111578 2.50088659823077 2.37481426493216)
(1.96661626352427 1.39642301076153 -3.92092778106312)
(-3.21360137195864 2.72801653907558 2.13172607678607)
(-1.13909686630362 -0.096668125364423 -2.4172886165815)
(0 1.52177615106923 -0.602520523012246)
(1.2171145115502 0 0)
(3.08910945986498 1.6585519910253 2.28449203157304)
(2.4696108965546 0.282233398917346 1.51711372203511)
(-0.630995132142079 -1.84312006289034 -1.30161409571832)
(0 1.77357552529651 -0.938352178025473)
(-1.26491953402584 0 0)
(-2.73241775793161 4.53415615291628 0.189844929939003)
(-0.184900799002568 0.754746432723083 1.40016056485525)
(0 -3.95740962221502 -0.0124255028558593)
(-1.47012900555905 0 0)
(0.97669726786217 0 0)
(0.931341752618171 -1.37530027056353 -0.538253830091383)
(-2.29995804158792 0 0)
(-0.144322880890655 -0.536505716063873 -3.21498209597892)
(-0.650123248522397 -1.23567859892635 -1.52272587999634)
(0 0.757696089097642 -2.66882573800862)
(0 0 0)
(0 2.0079736299156 2.81548869440561)
(-0.734860194159093 -1.36377428872949 0.602052159580771)
(2.42967803133415 0 0)
(1.12375334451851 0 0)
(-0.554454526964254 0 0)
(0 0 0)
(0 1.61027648887578 -2.61289296961774)
(-1.51813310386093 0.921440663500986 2.5209306624608)
(2.64605034158277 0 0)
(0 -0.140521816610293 -2.4832113450114)
(0.867596766228929 0 0)
(0.898614721887498 2.07758180630136 -4.1735965432444)
(0.753792568394276 0 0)
(3.89057814942496 -1.48273730578925 0.103035935866508)
(3.71449781760423 1.5241964784918 0.117366427426815)
(-1.59613395941028 3.14139661496573 1.25267207751171)
(0.436017004943746 1.32154712558717 -1.8564696090369)
(-1.46946516471849 0.127478087608528 2.30694672036811)
(0 0.128154971591103 -4.25178448166452)
(0 1.1778135411473 0.957014146564747)
(-3.46929030663428 0.547670801409036 -1.91962476983424)
(0.130233220082463 -0.501207815054523 2.75739248154505)
(0 -3.21951976734794 -0.351859296178002)
(-1.8381266703284 0 0)
(-1.31396430451559 0 0)
(-1.27471124099252 -1.00497871761083 2.09057932551837)
(-3.26873435899797 0 0)
(-2.60573761410906 -0.988272631093013 -3.036957135086)
(0 0 0)
(-2.51318059978957 1.76999626754931 -0.960944092967711)
(0 0 0)
(-1.38849259327664 -2.84462018314586 -1.02587415103301)
(0 -2.59742718337434 -1.23398496648136)
(0 0 0)
(0.72072548141491 -5.17075947818402 2.60300525352596)
(-3.77642800663529 -2.15289391590668 4.13854626707062)
(-1.88474988699182 0 0)
(1.83230902389964 -1.35806727553519 -0.793996683541956)
(0 -0.986037297624154 -1.17161774650716)
(-1.30204050148971 -2.68937898401798 0.553658308747398)
(0.314163213457893 -2.34025656108221 0.631552294910041)
(-1.12493774365063 0 0)
(-3.33554869371252 0.174256011751821 -3.8555895870987)
(2.03947147181602 1.94382666628897 0.621205202345459)
(1.63462597059405 -0.733490259781488 -1.3174276306568)
(-1.59491395793138 3.4977632033282 -2.8307949759761)
(1.58813913844481 0.225188201138408 -1.92697106820796)
(-1.60828337596642 2.22865339739999 0.447443041406241)
(0 0 0)
(-0.218351457386423 0 0)
(0 0 0)
(-1.54400884945558 -1.26418732919834 2.88200715586276)
(0 0.964527201926223 3.34977036273866)
(-2.12315179486923 0.760801503062815 1.412430731495)
(-2.74021346460158 0 0)
(-1.77800761882368 1.23192771187887 0.987568143250841)
(-3.4530859606473 -2.00333809510784 0.0853058568194983)
(-1.47278512559324 -0.383706828507739 1.53013103709262)
(-0.352205188684588 -1.58318643889253 1.20527966689459)
(0 0.230082877644153 3.88122399695312)
(0 0 0)
(-0.119288090400929 0.835947134734818 4.34172483806793)
(0 0.885830318415844 2.67508493907181)
(-1.03577275382246 1.07345299341724 1.1832775636072)
(-1.32182207183552 0 0)
(0 1.66317317322885 -3.4094338968387)
(2.34118889393823 1.3247798396409 -1.89224617919682)
(2.31444736548193 -2.25005072271775 1.00261244441143)
(0 0 0)
(-5.1958185849179 0 0)
(0 3.43910422713576 -0.594427557567998)
(0 -1.89032518055027 1.3637401292628)
(1.58988434521154 0.993561489160027 -2.6648571574419)
(2.22221406006208 3.23523825822027 2.69343805630514)
(1.10900258731408 0 0)
(0 1.95910449071269 1.45515624926624)
(0 -2.69905974522761 -0.918005964738464)
(2.24784819268759 0 0)
(-0.512549305305196 1.0485945682011 -1.20530073934918)
(0 1.51641481503988 -0.132809415317601)
(1.67051501028798 -0.0758589996326241 -2.79779260441222)
(-0.672351935748963 -1.33030194506894 -0.673548055029977)
(-1.10646187555608 1.93774068413525 -0.263333180156107)
(-5.28114359665869 3.4104056343236 1.65145316934971)
(0.793881506304756 0 0)
(0 0.944686759179066 4.82725387056337)
(-0.824013484357598 -2.05141237124589 -0.0540649012246136)
(2.68598575689849 0 0)
(0 -0.104251947214242 -2.87124481934104)
(0 -3.3869826841072 0.326356972639955)
(0 3.35588212836975 2.22427407573024)
(-3.07748918835273 -2.87843829031167 1.22357421981643)
(1.4759909538463 0 0)
(0.0239299420902344 -3.02282507696045 -0.745000630605394)
(0 2.08826976694408 2.08268447656748)
(0.588365624557278 0 0)
(0 0 0)
(-0.746753546169833 0 0)
(0.614034749538767 -2.20535518101975 0.129295034943474)
(0 -2.12451349212902 2.44905440475214)
(0.756654598891563 0 0)
(3.07979205102817 -0.000285580740013667 -6.92027356462908)
(-1.20259367700552 1.61351005824152 1.25356506795819)
(-0.905927447104269 0 0)
(-0.641059637845272 -1.36555997772487 2.82003646855786)
(-0.7967782913099 0 0)
(-1.50917064871415 0 0)
(-1.8973390942632 0 0)
(0 0.168342159901292 1.92611079629695)
(1.64539815522636 -3.10322706587364 -1.23015239106742)
(-4.33414482914311 -1.32110355650809 -2.41551837643276)
(-0.406800271835626 -2.50072005959663 -0.422431577272846)
(0.981709193663014 1.47395825920454 -1.39892531844166)
(-3.20466577692591 -1.99437802773164 -0.0931823549371418)
(3.6696820889176 -1.95105473480724 -2.95091691629407)
(-0.121684207881694 -3.80684785391116 -4.61916396603551)
(3.4127939461819 2.94910472856232 -0.956278874413216)
(0 0 0)
(0 0 0)
(-1.85833745871858 1.44730228143121 -4.25769528751748)
(1.80533878090315 3.08981278586874 0.543354423010591)
(0 0 0)
(0 0 0)
(-0.696440638830638 0 0)
(0 2.83854782487975 -0.54260053747395)
(0 0 0)
(0 0 0)
(3.90928879112235 0 0)
(-2.55517547314751 0 0)
(-1.53275507891469 0 0)
(2.35064791676726 -0.0284703942875929 2.64062751764432)
(0 0.655924761384465 -1.39188930178239)
(0 1.86164521229648 -0.716151682952242)
(-2.31082601700037 -1.43991660261272 1.39305514865018)
(0 -0.709376814841225 3.33815428507173)
(2.01682058099426 1.35884857640013 -0.775100038521571)
(2.90780233086681 0 0)
(-1.02871911484471 -4.09373529731623 -1.22991572183806)
(2.82058893118289 -1.76599216854712 2.31322200406432)
(0 0 0)
(1.43580904521381 -0.885494918579628 -2.91171118615214)
(1.26998071615325 0.169266578760395 -3.70508903730141)
(1.28819819524952 -0.983789054615703 -3.21000018407815)
(-1.79345605017679 -1.48088113192164 -0.446506886184389)
(1.85220097616464 0.426138444954464 5.45458000907787)
(0.785356239734767 -0.331038620462651 1.50172133372934)
(0 -1.11508521379145 -1.13455860680894)
(0 -3.13152532928155 -1.78425173037883)
(-2.31232975564782 -1.34816394039312 0.729447583846324)
(1.19803556802492 3.26324973621632 0.510205470861226)
(0 1.98860524760123 -0.091881875381362)
(1.35379966882598 -2.80756087154818 0.994463486059909)
(0 -1.37999325571068 -0.876540410201269)
(1.8190534963331 4.36302102670693 2.38353882478098)
(-0.909921828605737 0 0)
(-2.2474431036093 -0.841672745896169 -2.09089007177979)
(1.72926487513007 -0.534819844709167 -3.32258491512816)
(-1.2480327797942 -2.98289714586748 -3.10726096581823)
(-1.96144359304219 -2.39034732328326 -2.14544999245193)
(-0.611464313983776 0 0)
(-0.780297924982349 -1.43098229389101 -0.539683623819567)
(-3.20276652601119 1.09462655402236 -2.35009210773586)
(0 0 0)
(1.48199520642099 -0.0399717512651692 -1.46989950198677)
(-0.870331690212594 3.40272917656255 -1.3133914123625)
(-2.47650606928482 0 0)
(4.91768433023046 0.434290933645463 -1.4554116917167)
(-0.64782873505623 0 0)
(0.398091818600864 3.09558273447392 1.72415254274445)
(2.35825288019657 -0.803553527629832 -3.38546022707101)
(0 -0.938792512534977 3.93365383073248)
(0 0 0)
(-0.107862739007066 -2.62966486660956 1.58886878444969)
(0.744947548424425 1.8582659947027 -0.78756897983703)
(0.131560191307662 -2.6547562544791 2.32384335370281)
(1.07743077533917 -4.55477631161129 -1.73750832754032)
(2.57691813014197 0.883903530526682 -1.71102129696086)
(0 0 0)
(0 -1.28624923484502 3.09998443665049)
(1.11326707885842 3.68795783758816 2.20844823031719)
(1.46328696476132 -3.08966926027684 -1.51805270978861)
(2.18825208350633 -2.70993309018159 -1.83911893079796)
(1.20174697201129 0.590710032584422 1.84995867409878)
(-3.18128961893885 0 0)
(-2.38516854546674 -1.84617249055357 -2.46786652267916)
(0 1.23318415942264 5.28898042623828)
(0 0 0)
(0 0.985868785280858 -3.05796826925982)
(1.91778884418621 0 0)
(-1.22740760128993 1.36849509728481 0.597252231674343)
(0 -1.52334466911422 0.34676324786177)
(2.29278952943012 0 0)
(1.77359157520317 5.10753360552169 -2.46745292585882)
(0.851457036408814 1.81926762322372 -2.35321474521938)
(-1.48690909066554 -0.0614912845699151 -1.94355737137973)
(-0.920277582402763 -1.43752656652717 3.57116590900605)
(3.24951310200398 1.39940752648579 4.14445336226033)
(0 -2.79048723931356 -0.308142714593266)
(-5.83542989275601 4.28636447867994 -1.42341622351593)
(0 4.09971058019971 -2.1094167108502)
(2.62270550870902 5.1030571324581 -3.04397468730485)
(0 1.4234656573564 -0.752454300612766)
(0 1.35501491056897 -2.10396124449755)
(0 -1.01353781403131 1.80177709602955)
(3.36464244468679 -1.20295641130331 -1.00986545129)
(0 2.65287005610344 0.357024868337198)
(0 0 0)
(-1.35282514943724 0.492147468229736 -1.52746427350937)
(-0.673297225863479 -2.23684646774476 2.15371600423707)
(-1.33362106456596 0 0)
(-2.21095730122601 0 0)
(-2.48352829877556 -1.94542403311994 0.492621871459549)
(-3.74685293405592 -1.21657846603085 -2.62535923323515)
(1.92749612520236 0 0)
(-1.19333217387223 -3.98302907017346 1.2957948784525)
(2.18865169400307 -4.8845077203601 3.71711078240852)
(-1.65359698644056 -0.156486606745792 -2.74046049138936)
(-1.41321837490886 -1.5748316850286 -0.36544917279218)
(1.42823716345808 -3.0192889695991 2.44882758195093)
(0 5.00124912964102 -0.526467170581445)
(0 1.24013436362311 -1.62977292571032)
(0 3.72504889210096 2.20985031089773)
(-2.09095735279685 0 0)
(1.98640403863539 1.17510495699794 -2.25893450803978)
(0 -2.12832036559807 3.0716971160294)
(2.69425831225973 0 0)
(-3.00000808199084 0 0)
(0 0 0)
(0.629485439317318 -3.22557627563897 0.632326042221913)
(-1.52396840041308 1.56765430025709 -0.0688483471629031)
(4.77323488374553 5.2513158961723 -0.480443689993687)
(-0.643030850721097 -2.20921379582099 1.14101244751455)
(0 -0.111924923873138 2.50066084190048)
(1.09666941028202 -3.60953807171967 -0.575577064195775)
(0.166405348873337 3.15820889168812 -0.485453937933684)
(4.190252027989 -1.45519693985649 1.83718659360998)
(1.41580456927923 -2.05669590405076 1.73757553890063)
(-1.48843538269321 2.55857735522285 -0.842949812370016)
(0.448150885110545 -0.460620679669761 3.30795205258223)
(-2.36251523229565 -2.52617358903179 -0.643534998603724)
(0 2.02088077756175 -1.13570221825054)
(1.5986440366216 1.60786312048705 -1.85723688980962)
(0.661789680556436 3.15865189867342 0.683246899538689)
(1.44992796578203 -1.58054437090365 -0.338168311079862)
(1.53185216843142 1.41489027677774 0.820487322644324)
(0 0.125590948666033 3.18828874337515)
(0 0 0)
(1.39515203956871 -1.94950068559842 -2.43088621803805)
(-2.72268946731067 0.886192756492895 2.06999971693838)
(1.09596283988496 0 0)
(-2.58723227442494 0.444061730783628 3.97678172468117)
(-0.259658513154724 2.82828991908639 -2.34888620313715)
(0 2.64657415749541 -0.27259007281133)
(-0.0992477414805948 0 0)
(0 -0.649511012619613 -1.96414244116926)
(1.23657494899212 1.25063246562971 1.59854307802904)
(-1.57946435612495 0 0)
(0.453862149497035 -1.73462274897449 -0.948512987721134)
(-2.13937691767456 -1.6101054501694 1.6326039726537)
(-3.37069007760568 0.800614183001852 -1.83233878727969)
(-5.36747377082771 0 0)
(0 0 0)
(0 -1.23378822449143 -4.74128387325587)
(-2.02222931863715 -0.885895988017555 -1.34297805201576)
(0 0 0)
(0 1.11395709304366 3.31537153283057)
(-0.151726020174286 -0.00939998453713937 2.7707706786949)
(5.2047874490576 -2.71429718446424 1.88320939971161)
(0 -0.476123918627021 -2.9723267808099)
(-4.86045454094392 1.92344958832564 -2.02879500303176)
(1.8336895802182 0 0)
(2.57466566458444 0 0)
(0.749623109560001 4.54099624327818 -3.66398336640358)
(3.89338501342801 2.29577391274431 1.69334161194609)
(0 -1.06994483408373 2.52743571821953)
(0.668960290838048 0 0)
(0 3.25596115497726 -2.1873504335656)
(-2.86002116771523 0 0)
(0 0.947926338177369 -1.74229814757287)
(0 -0.413461601218396 2.3008151092496)
(1.25515711045537 0 0)
(0 3.72131765209029 -0.165835594688072)
(-2.06480564294061 0.0875143054616194 -1.97882843745046)
(0.858225909180085 -2.07295049322314 0.954394547699202)
(0 0 0)
(1.90540362688113 0 0)
(0 0 0)
(-0.0824112348132226 -2.85663340713977 0.976607401800086)
(0.977316462012329 0 0)
(-1.49409020722462 0 0)
(-1.31586421438815 1.91186966681318 -0.323430597700738)
(0.301567503311333 0 0)
(-2.37512878481004 1.77405497181555 -2.29750025612674)
(2.54106006295643 0 0)
(-0.0146663324457038 1.33725685273385 -2.31913372403125)
(0 0 0)
(-2.28584093166494 -0.507968790519937 4.33509092693274)
(0.763972210117542 0 0)
(0 -0.263843500650001 1.5275635108773)
(-1.52350848231617 0 0)
(1.4982881382501 2.51232847161626 -1.14270274946511)
(2.05809935323639 -0.401578354874894 -6.16094648280536)
(1.90647137692524 -1.09817873237196 1.59865071165487)
(0 1.93272480289484 -0.253434062105674)
(-1.17239193621641 0.00101118583177169 -2.93220937104048)
(-1.44748291128953 -0.784918014520669 4.72582758033221)
(0 0 0)
(0 -2.21028348133017 -2.35514897859672)
(0 0 0)
(0 -1.32424036875915 3.08270405713926)
(0 -0.985036634921934 -1.16898937169997)
(2.14284691691411 -2.8070695970705 2.17716317387684)
(-4.77573534871412 0 0)
(-1.9774490452133 -1.504109548688 -0.581049586377475)
(-4.403879866781 -3.03602430466731 2.11756561849784)
(2.50345622624704 1.064001790649 1.68488096930189)
(3.13519209217811 3.10489527924898 -1.12249507228053)
(-1.76047120591832 -4.49210590853175 2.72996539689374)
(0.630482122957309 -1.72355826252989 1.81436641959083)
(0.970362815268319 0.941790591419752 1.23944490840889)
(3.81419831689278 0 0)
(-1.82446599404195 0 0)
(0 -1.55094560365603 3.10174175762866)
(-0.171948824517581 0.11136608572914 1.58880912130265)
(1.24223539481719 1.34582874863596 -0.790419309245196)
(0.248569980460246 -1.4622463138448 -0.382071036469037)
(-1.29869232291161 -3.55472053319845 1.32769562436039)
(-1.98839143054939 0 0)
(1.46807288060405 0 0)
(-0.688445229469318 2.76751104236764 -1.60561500686371)
(-2.18314312985946 0.6053728754293 -2.23101171324454)
(0 1.68159444188091 -3.32789958318161)
(2.16604508036454 0.461567202010399 -2.56899015459036)
(-0.95438013640556 1.38189699282458 -0.529542394264934)
(0 1.38515721699515 -0.690360255327619)
(0 -0.0878680984463669 1.52062098599779)
(0 -1.44254791176361 0.609556907121977)
(0 0.663669654228862 -1.39312137713215)
(-1.31976924054315 0 0)
(0 0 0)
(-3.45964728774409 -1.37471932080124 1.48163199932971)
(1.29597016845698 0 0)
(0.330618791242483 -1.55269206148066 1.72604212919832)
(2.56587911565577 2.88618385005839 -1.11350889944676)
(-0.721327474079245 3.4516223689249 -2.89482950306003)
(0 -2.12570344378849 -0.825792858029712)
(0 0 0)
(0 -1.6158527815032 1.28422472226401)
(0 0 0)
(-0.27574280851314 -1.60498614377968 -2.78702540207949)
(0.602077086900823 1.34649370136421 0.810084371599819)
(2.75309563066375 -0.845110499564294 5.66209250655634)
(-1.7116496564631 2.26677335638266 -1.61445153897045)
(0 0 0)
(1.2961032039046 -1.10718009953382 -2.24188712785277)
(-1.56656185713052 -1.95388694422393 0.310393123792467)
(-0.822936108015314 0 0)
(-1.04556439184381 -0.645574529907585 -1.43125809344724)
(0 -4.06662187128303 -0.359598923670993)
(-3.61501269393938 -2.74621571455545 0.909839391144228)
(0 -1.54963448348959 -2.37265516898083)
(0 -2.34219814647765 0.138641526437029)
(1.89338676710254 -0.393629413669695 2.2329625060698)
(0 0.0920995001820027 -2.87350948211206)
(0 3.58955114479027 3.22850079153021)
(0 -0.268541767572013 -1.48098152018922)
(3.56073269520541 0 0)
(-1.89355023562442 0.192390080617469 1.94323504389684)
(-1.43873522109469 -0.568684217943727 2.16162920213386)
(-1.8780048008945 0.816975013268484 -1.34048376519977)
(0 0 0)
(-4.3779224163921 -1.52465986910322 -2.25303038866557)
(0 0 0)
(-2.24824166483459 0 0)
(0 -1.64876306482046 -1.49217814777168)
(0 -1.59381730867914 1.53274029097578)
(0 0 0)
(1.95848668498267 0 0)
(0 0 0)
(2.53813368171493 0 0)
(5.67176198597872 0 0)
(3.54081170194741 0 0)
(0 -3.08571361479405 -3.27204508897932)
(-2.41211345441386 0.450212531781306 -3.57570716512814)
(-1.55326112368095 0 0)
(0 -1.83330911150629 1.62478861440097)
(0.338878201621377 0 0)
(0 0.451387987970529 -1.55277634773221)
(-5.62600412146781 4.8049843556843 0.536445844165741)
(-1.23776377802476 1.78733572291207 2.8364286230608)
(-2.98152364473421 0 0)
(1.9891106631449 -0.923983364103294 1.78308448302405)
(-0.78955632508051 -0.226669430467299 -2.26259719570873)
(-0.458524155901876 0 0)
(1.31299734153699 -2.59222348600195 2.77101367832349)
(-1.56926971973561 0 0)
(0.336615319911351 0 0)
(0 1.43997910723551 2.89709961702562)
(-2.79310231975473 0.247243980426259 1.48863903375025)
(-0.938285632892716 -2.40802153144588 -1.6216217508664)
(1.56519952766248 0.976125024373569 -1.24535225450562)
(-4.95963742673926 0 0)
(-1.43613974431979 0 0)
(-3.13124752291176 0 0)
(-0.89057641508588 0 0)
(0 -0.348777242799132 -2.73957500810958)
(1.28912204825776 0 0)
(-1.59614390841959 0 0)
(-1.87930929749836 0 0)
(1.83817077989992 2.12303591714876 1.33867834637043)
(2.88541027243661 -0.86810652106075 3.05680370172929)
(-2.64886035562918 0 0)
(2.60058238224926 -1.53893268828146 -2.28009352336963)
(0 -0.82638489871045 -3.04162399651891)
(0 0 0)
(3.23040975088927 0.31382379168276 2.62129697422207)
(1.56730870490965 3.95081365129302 -1.48873928201898)
(1.33019902492928 0.651649498265942 -1.38366605649753)
(-3.30541080967568 0 0)
(-3.79040222612599 2.67295919679369 3.23087589459376)
(-1.89325319443306 0 0)
(-1.94520891311021 0 0)
(2.21273841532282 1.20147961250609 -1.07556634517563)
(1.45878008207078 -2.11446015807262 3.18895683678017)
(0.164381386942761 0 0)
(0.91591126912189 0.568903963002049 -2.25137584702372)
(0 0 0)
(-2.14281075587579 -1.93277689695264 0.409372157587576)
(-1.2141118475029 0 0)
(1.71482141460904 0.361832608568801 -3.23123635883325)
(0.236359090372884 0 0)
(0.11133405871908 -3.00996145490435 0.697094211008607)
(0 -0.0740689597001025 -2.24292109614948)
(-0.565444432543956 0.879331529128268 -3.64877637025048)
(0 0 0)
(-2.04720662226538 1.81406323014717 1.0048658684494)
(0 -0.645348319035566 1.35134635611093)
(0 0 0)
(0 -4.04956656170623 0.461712913137042)
(1.54485129856494 1.1555366941498 1.69795411452625)
(0 0 0)
(-0.665785395058569 -2.2965048247782 1.92447900907581)
(2.42933180871141 3.07379320384881 -0.592766779545658)
(0 0 0)
(-2.36596771021388 0 0)
(0 0 0)
(0.523303360888509 1.01438326787378 2.24933596494343)
(3.19408673485862 0 0)
(-1.79781974893365 0 0)
(0.681375550833275 2.49842745382777 -3.6964105932413)
(0.0756446005147793 -0.115516300782328 1.61277849199213)
(-1.56056556930395 2.65332367644725 1.01764948150047)
(0.803967440990122 1.8844873195952 -3.27683078229441)
(0.461494772353117 0 0)
(-4.5956932371766 1.54713365028442 -3.97400593745931)
(0.595359056979016 -1.53834514063427 -0.208314401522871)
(2.76201761059645 0.736136449097678 2.21980887215791)
(-3.18994742528243 -2.8016740357394 1.62531859354349)
(0 0.745724569331788 -1.85831151914956)
(0 0 0)
(2.16759891185305 0 0)
(1.42231732859253 -3.31839558742439 0.373414190690021)
(0 0.616351520485677 4.37120189287333)
(0.575590953231694 -1.9129090950358 -1.51763967499427)
(2.24853276562575 -3.29032082727576 -0.681796839651947)
(0 -4.54977995665416 2.19015624725613)
(0 -2.25116705158588 -0.0736766376638755)
(0 0.50846436610894 2.00454675181575)
(3.59265466507401 3.73591519212058 -2.03402298291801)
(0 0 0)
(-3.56757804731523 0 0)
(-4.57866828364542 0 0)
(1.41919163499396 0 0)
(1.3284175714326 0 0)
(-1.03502370677437 0 0)
(0.0705413440452708 -2.1486247756705 5.17419733637961)
(-1.41540012714169 5.23486377778974 -1.68001084398284)
(-3.48078207473848 -5.41536879796301 0.277862287638796)
(-0.661631923668451 1.75465671968636 -0.845507720934839)
(-0.175185254096045 -2.82100531370687 -2.47676377334529)
(-2.69458498208888 -3.3776137888939 0.267501178037951)
(-0.669409996886966 3.04302960591165 0.630743508165207)
(0 -2.88512097627526 -2.51878824374182)
(-0.816961931557591 0 0)
(0 2.30633783562808 -0.926806724308972)
(0 -1.40532577698345 -1.76065146729526)
(-2.61424465593737 1.00571215080757 -1.07848489942111)
(-1.19883099850522 -2.49449240468655 -1.83722094790972)
(0 -3.33541015069738 -2.28566976990345)
(0 0.606236136012853 -2.79727851254131)
(0 1.01313965989133 -2.27777158263964)
(-3.09699650109203 0 0)
(1.68017162018082 0 0)
(-1.9674968564287 0 0)
(-2.10594754093434 0 0)
(0 1.49274986549007 0.0196935630299674)
(0 -1.56082963060851 3.61591162796127)
(2.78879078585548 -0.121610884515168 2.03598647735357)
(3.31248289238034 -2.02311629516035 1.11826702449829)
(1.90525238698056 0 0)
(0 -0.785682422639921 -1.34614331696513)
(2.24643183042032 0.359032199008233 3.41340060793909)
(-6.5503426901151 1.75315736476531 0.844134757100219)
(3.36894141348423 -2.25758441681607 -2.11841194178105)
(-0.151225546097074 0.964805937206333 -1.26857387678226)
(0 0 0)
(0.476649556386919 3.52501357361517 -0.981828385093797)
(1.99117052787764 -0.44183253068167 1.92177922424538)
(0 1.2544654673666 -2.46962292127184)
(-0.166267926364326 1.61192079993552 1.92280432660797)
(-0.624957674720266 2.27733182215698 -2.16454866549274)
(0 -1.98808163803846 -0.196951069654174)
(5.53518306954101 1.7692877471455 2.67767834337811)
(0.270843302256605 -1.9552925067713 1.28175582684754)
(0 2.65657087681171 -0.407418682454291)
(1.87510265237562 1.99390850239452 -0.570464353267285)
(3.11456324566581 0 0)
(1.8311673390719 1.90647001752397 2.45748832145263)
(0 -2.14127003305738 -1.38213962265285)
(-3.28904619718374 0 0)
(-0.419031747478986 -1.46564695868191 0.713825331971216)
(0 2.29068169130367 0.972562374501504)
(2.17798876569879 0 0)
(-2.25793095798351 0 0)
(-1.08185246745297 0.939913351571276 1.73116660393643)
(-1.12895488000634 -2.94441217269255 3.96767347935951)
(-2.57449328303037 0.849710876605594 2.32612195336992)
(0 -0.364335854650259 1.5522771536445)
(1.31373006370943 0 0)
(-1.51119170791823 0.875341776395423 1.27988987124759)
(-1.23091155021286 -2.94875738485777 -1.85090784850163)
(0.607190617731194 -2.83339862413123 0.314282706633228)
(0 0 0)
(4.12422408359531 -2.54623432462742 -0.870605619872553)
(0.665571318632485 3.03465352693937 0.190158030431178)
(0 -4.06009366130173 -1.81655705762574)
(3.60039961866563 0 0)
(0.879323436344697 0.879498277267155 -2.80448979056341)
(0.247038103023841 1.5980020004533 0.0217679296535472)
(-2.04933420406665 0.00771547754118285 4.62315793537569)
(-1.04285493345616 -1.15177473833922 0.990670983257644)
(-1.25335200429031 -4.82785254466515 -2.3908263586548)
(0 0.672447063179525 3.46505938934788)
(0.38634755855502 -3.8698409884647 1.08681257341667)
(2.32912112149971 -1.13416588639345 0.984030323175135)
(1.91457560085088 0 0)
(-1.41608330335685 1.81593022101075 -0.783850713750605)
(0 -1.90928092897786 -0.549168814123855)
(0 -3.23298387393033 1.39789695288784)
(0 0.652196475812249 2.20009275310567)
(0.93458678777401 0 0)
(1.81806410264023 -1.85345432766786 2.23138606593079)
(0 4.77329818905031 0.986676448630586)
(1.57648749326677 0 0)
(-1.62936638175017 1.02965371627055 1.121933359445)
(1.54778570472628 0.23871005323205 -5.03027801882911)
(-2.57763176103299 0 0)
(2.02498370853553 2.28985397166191 2.50250285554733)
(0 -3.31153620326751 1.07383252686427)
(0 1.7033966676718 -2.11966437274286)
(-1.9120655312139 4.52617699165287 0.160717024278193)
(0.33243616638231 2.03399904643538 -0.949039036988959)
(0 0.61428511379844 1.48664958824838)
(2.51809253348104 0 0)
(0 6.4292523501413 0.343617740317823)
(-3.11543742002643 -0.968411044965808 -2.40629197109941)
(0 -1.18612314679069 -1.64129609786842)
(0.870920089167658 -4.14146729224218 0.150867938594892)
(0 2.21043732281846 0.708494432929056)
(-0.364900106324512 0 0)
(0 -3.77791910762741 1.78614400786896)
(-1.83882236331609 -2.14805396053347 1.60099039030014)
(4.99098273411208 -1.15601983261427 -1.09250701351056)
(0 1.65021055337437 -1.12915755149082)
(-1.46905884392405 -1.39906693560237 -6.15376559706571)
(0 -4.31455578196468 -0.226548123973667)
(0.901826831907221 2.03459258847244 -0.0139215159830215)
(-2.78797523915327 1.41289601495173 -0.822293200560805)
(0 4.18238305434946 -2.90800179198654)
(0 1.69437670314751 4.69818929466991)
(0 -4.98121383429859 -0.208124550859499)
(1.43579009446014 -1.45799564325186 -0.460283476832933)
(0 0.296284425323144 2.05592840923035)
(1.04208977973152 1.37948139650083 1.46838929128989)
(-2.58995617634011 -0.345656936292759 -1.9716337260996)
(0 -2.21915703120466 0.77420266457459)
(0 0 0)
(-1.97127515070556 -3.09546631124893 0.134405923891674)
(0 1.10310613203711 -1.01250145330736)
(1.21136925858361 1.34316863045274 0.881187881176244)
(-1.23049324546174 0 0)
(-0.3128362288393 1.05319422281175 4.25954507120333)
(-2.50194409563909 0 0)
(0 -0.216373264519535 -1.57579329532383)
(0.19769231358258 0 0)
(0 -3.81383947322842 -0.734125469938934)
(0 0.290257366745654 -2.42907034540896)
(-0.937372091879456 1.69972747962999 2.36476697424598)
(3.33623683184792 0 0)
(-2.11628425256055 0 0)
(0 -0.697052921347241 2.38612095947376)
(2.89986343904144 1.73187107450272 -1.00076111382263)
(-0.328280017632608 2.93535469769595 3.02259689127563)
(-2.20890156472742 0 0)
(-0.229777151861145 -2.60281236903358 -0.0200061698861216)
(2.49652107948884 -1.4872795377342 -1.38796234510804)
(-1.510912208899 0 0)
(2.39467008572229 0 0)
(0 -0.217877546727717 1.5548950121743)
(-2.92407297367145 0 0)
(-1.1172199999195 1.35695427920882 -0.697701393301568)
(0 0 0)
(0.348479328332901 0.0772403351817237 -3.01326763968148)
(0 0 0)
(0 -1.92272723269479 -1.65644316933364)
(-0.443576141861393 0 0)
(-0.247313782729415 0 0)
(-2.56297670564161 0 0)
(2.98700243284655 -1.8938257513242 1.97605758291724)
(-0.467927464348798 0 0)
(0 -3.59917058347506 -3.99846653081984)
(0 -1.75278877745055 0.842109491324118)
(-1.69627639681921 0.852996442302709 -1.89470462848609)
(0 0 0)
(0.845182877378051 0 0)
(0 -1.31934767218243 -2.05333309608468)
(0 2.79625471895817 5.13985417976471)
(2.04040731126182 -0.152396524931398 2.93671071117062)
(-4.66909517072511 2.65484553794656 -3.90356250909449)
(0.068162202790272 3.21782057971702 -1.43933668209903)
(1.43096480494471 0 0)
(1.54096096494776 -2.51076137469211 -3.17581866257929)
(0 0 0)
(-2.38297969565328 3.62657739715496 2.76427174278554)