/*---------------------------------------------------------------------------*\
| =========                 |                                                 |
| \\      /  F ield         | OpenFOAM: The Open Source CFD Toolbox           |
|  \\    /   O peration     | Version:  1.7.1                                 |
|   \\  /    A nd           | Web:      www.OpenFOAM.com                      |
|    \\/     M anipulation  |                                                 |
\*---------------------------------------------------------------------------*/

FoamFile
{
    version         2.0;
    format          ascii;

    root            "";
    case            "";
    instance        "";
    local           "";

    class           dictionary;
    object          blockMeshDict;
}

// * * * * * * * * * * * * * * * * * * * * * * * * * * * * * * * * * * * * * //

convertToMeters 0.02700777;


vertices
(
    (0 0 0)
    (1.0 0 0)
    (1.0 1.0 0)
    (0 1.0 0)
    (0 0 1.0)
    (1.0 0 1.0)
    (1.0 1.0 1.0)
    (0 1.0 1.0)
);

blocks
(
    hex (0 1 2 3 4 5 6 7) dsmcZone (1 1 1) simpleGrading (1 1 1)
);

patches
(
    cyclic
    cyclicX
    (
        (7 3 0 4)
        (6 2 1 5)
    )

    cyclic
    cyclicY
    (
        (7 6 2 3)
        (4 5 1 0)
    )

    cyclic
    cyclicZ
    (
        (0 1 2 3)
        (4 5 6 7)
    )
)

mergePatchPairs
(
);


// ************************************************************************* //
