/*---------------------------------------------------------------------------*\
| =========                 |                                                 |
| \\      /  F ield         | OpenFOAM: The Open Source CFD Toolbox           |
|  \\    /   O peration     | Version:  1.3                                   |
|   \\  /    A nd           | Web:      http://www.openfoam.org               |
|    \\/     M anipulation  |                                                 |
\*---------------------------------------------------------------------------*/

FoamFile
{
    version         2.0;
    format          ascii;

    root            "";
    case            "";
    instance        "";
    local           "";

    class          dictionary;
    object         combineZonesDict;
}

// * * * * * * * * * * * * * * * * * * * * * * * * * * * * * * * * * * * * * //

//- list zones to combine together. These zones will also be subtracted from the global zone

zones
(
     zone
     {
         name            extZoneA;
     }

     zone
     {
         name            extZoneB;
     }
);

addedRegionsName         noMdZone;

subtractedRegionName     mdZone;

// ************************************************************************* //
