/*---------------------------------------------------------------------------*\
| =========                 |                                                 |
| \\      /  F ield         | OpenFOAM: The Open Source CFD Toolbox           |
|  \\    /   O peration     | Version:  1.6                                   |
|   \\  /    A nd           | Web:      http://www.openfoam.org               |
|    \\/     M anipulation  |                                                 |
\*---------------------------------------------------------------------------*/

FoamFile
{
    version         2.0;
    format          ascii;

    root            "";
    case            "";
    instance        "";
    local           "";

    class           dictionary;
    object          couplingDict;
}

// * * * * * * * * * * * * * * * * * * * * * * * * * * * * * * * * * * * * * //

couplingConfigurations
( 
    OneD
    {
	count 1;
        names (mdFOAM_OneD);
    }

    TwoD
    {
        count 2;
        names (mdFOAM_TwoD_1 mdFOAM_TwoD_2);
    }

    ThreeD
    {
        count 3;
        names (mdFOAM_ThreeD_1 mdFOAM_ThreeD_2 mdFOAM_ThreeD_3);
    }
);





// ************************************************************************* //
