/*--------------------------------*- C++ -*----------------------------------*\
| =========                 |                                                 |
| \\      /  F ield         | OpenFOAM: The Open Source CFD Toolbox           |
|  \\    /   O peration     | Version:  2.4.0-MNF                             |
|   \\  /    A nd           | Web:      www.OpenFOAM.org                      |
|    \\/     M anipulation  |                                                 |
\*---------------------------------------------------------------------------*/
FoamFile
{
    version     2.0;
    format      ascii;
    class       polyBoundaryMesh;
    location    "constant/polyMesh";
    object      boundary;
}
// * * * * * * * * * * * * * * * * * * * * * * * * * * * * * * * * * * * * * //

12
(
    cyclicX_left
    {
        type            cyclic;
        inGroups        1(cyclic);
        nFaces          400;
        startFace       92000;
        matchTolerance  0.0001;
        transform       unknown;
        neighbourPatch  cyclicX_right;
    }
    cyclicX_right
    {
        type            cyclic;
        inGroups        1(cyclic);
        nFaces          400;
        startFace       92400;
        matchTolerance  0.0001;
        transform       unknown;
        neighbourPatch  cyclicX_left;
    }
    cyclicX_middle_left
    {
        type            cyclic;
        inGroups        1(cyclic);
        nFaces          400;
        startFace       92800;
        matchTolerance  0.0001;
        transform       unknown;
        neighbourPatch  cyclicX_middle_right;
    }
    cyclicX_middle_right
    {
        type            cyclic;
        inGroups        1(cyclic);
        nFaces          400;
        startFace       93200;
        matchTolerance  0.0001;
        transform       unknown;
        neighbourPatch  cyclicX_middle_left;
    }
    cyclicY_left_back
    {
        type            cyclic;
        inGroups        1(cyclic);
        nFaces          800;
        startFace       93600;
        matchTolerance  0.0001;
        transform       unknown;
        neighbourPatch  cyclicY_left_front;
    }
    cyclicY_left_front
    {
        type            cyclic;
        inGroups        1(cyclic);
        nFaces          800;
        startFace       94400;
        matchTolerance  0.0001;
        transform       unknown;
        neighbourPatch  cyclicY_left_back;
    }
    cyclicY_right_back
    {
        type            cyclic;
        inGroups        1(cyclic);
        nFaces          800;
        startFace       95200;
        matchTolerance  0.0001;
        transform       unknown;
        neighbourPatch  cyclicY_right_front;
    }
    cyclicY_right_front
    {
        type            cyclic;
        inGroups        1(cyclic);
        nFaces          800;
        startFace       96000;
        matchTolerance  0.0001;
        transform       unknown;
        neighbourPatch  cyclicY_right_back;
    }
    cyclicZ_left_bottom
    {
        type            cyclic;
        inGroups        1(cyclic);
        nFaces          800;
        startFace       96800;
        matchTolerance  0.0001;
        transform       unknown;
        neighbourPatch  cyclicZ_left_top;
    }
    cyclicZ_left_top
    {
        type            cyclic;
        inGroups        1(cyclic);
        nFaces          800;
        startFace       97600;
        matchTolerance  0.0001;
        transform       unknown;
        neighbourPatch  cyclicZ_left_bottom;
    }
    cyclicZ_right_bottom
    {
        type            cyclic;
        inGroups        1(cyclic);
        nFaces          800;
        startFace       98400;
        matchTolerance  0.0001;
        transform       unknown;
        neighbourPatch  cyclicZ_right_top;
    }
    cyclicZ_right_top
    {
        type            cyclic;
        inGroups        1(cyclic);
        nFaces          800;
        startFace       99200;
        matchTolerance  0.0001;
        transform       unknown;
        neighbourPatch  cyclicZ_right_bottom;
    }
)

// ************************************************************************* //
