/*---------------------------------------------------------------------------*\
| =========                 |                                                 |
| \\      /  F ield         | OpenFOAM: The Open Source CFD Toolbox           |
|  \\    /   O peration     | Version:  1.6                                   |
|   \\  /    A nd           | Web:      http://www.openfoam.org               |
|    \\/     M anipulation  |                                                 |
\*---------------------------------------------------------------------------*/

FoamFile
{
    version         2.0;
    format          ascii;

    root            "";
    case            "";
    instance        "";
    local           "";

    class           dictionary;
    object          mdInitialiseDict;
}

// * * * * * * * * * * * * * * * * * * * * * * * * * * * * * * * * * * * * * //

polyConfigurations
(
 
    configuration
    {
        type                    polyBCC;
        temperature             3.816;
        bulkVelocity            (0.0 0.0 0.0);
        molId                   water;
        frozen                  no;

        boundBox
        {
            startPoint          (0.9 0.9 0.9);
            endPoint            (16 16 16);
        }

        unitCellSize            1.1;
        N                       4298;
    }
);





// ************************************************************************* //
