/*--------------------------------*- C++ -*----------------------------------*\
| =========                 |                                                 |
| \\      /  F ield         | OpenFOAM: The Open Source CFD Toolbox           |
|  \\    /   O peration     | Version:  1.6                                   |
|   \\  /    A nd           | Web:      http://www.OpenFOAM.org               |
|    \\/     M anipulation  |                                                 |
\*---------------------------------------------------------------------------*/
FoamFile
{
    version     2.0;
    format      ascii;
    class       dictionary;
    location    "constant";
    object      moleculeProperties;
}
// * * * * * * * * * * * * * * * * * * * * * * * * * * * * * * * * * * * * * //


idList          (water);

moleculeProperties
(
    water
    {
        cloudType               polyMoleculeCloud;
        siteIds                 (H H O M);
        pairPotentials          (0 0 1 0);
        siteReferencePositions
        (
            (7.56950327263661e-11 5.85882276618295e-11 0)
            (-7.56950327263661e-11 5.85882276618295e-11 0)
            (0 0 0)
            (0 1.546e-11 0)
        );
        siteMasses
        (
            1.67353255e-27
            1.67353255e-27
            2.6560176e-26
            0
        );
        siteCharges
        (
            8.91450997367e-20
            8.91450997367e-20
            0
            -1.782901995e-19
        );
   }
);

// ************************************************************************* //
