/*---------------------------------------------------------------------------*\
| =========                 |                                                 |
| \\      /  F ield         | OpenFOAM: The Open Source CFD Toolbox           |
|  \\    /   O peration     | Version:  2.4.0-MNF                             |
|   \\  /    A nd           | Web:      http://www.openfoam.org               |
|    \\/     M anipulation  |                                                 |
\*---------------------------------------------------------------------------*/

FoamFile
{
    version     2.0;
    format      ascii;
    class       dictionary;
    location    "system";
    object      mdInitialiseDict;
}

// * * * * * * * * * * * * * * * * * * * * * * * * * * * * * * * * * * * * * //

polyConfigurations
(
    configuration
    {
        type		polyBCC;
	SIUnits		yes;
        temperature	300;
        bulkVelocity	(0 0 0);
        molId		Ar;
        frozen		no;
    
        boundBox
        {
          startPoint	(1e-7 0 0);
          endPoint	(1.5e-7 5e-8 5e-8);  
        }
    
        unitCellSize	2;
        N		3021;
    }
);

// ************************************************************************* //
