/*--------------------------------*- C++ -*----------------------------------*\
| =========                 |                                                 |
| \\      /  F ield         | OpenFOAM: The Open Source CFD Toolbox           |
|  \\    /   O peration     | Version:  2.4.0-MNF                             |
|   \\  /    A nd           | Web:      www.OpenFOAM.org                      |
|    \\/     M anipulation  |                                                 |
\*---------------------------------------------------------------------------*/
FoamFile
{
    version     2.0;
    format      ascii;
    class       vectorField;
    location    "0/lagrangian/polyMoleculeCloud";
    object      pi;
}
// * * * * * * * * * * * * * * * * * * * * * * * * * * * * * * * * * * * * * //


4298
(
(-0.237544829546558 0.458355543675469 0)
(0.252843430300681 0.0075799226076408 -0)
(-0 0 -0)
(-0 0 0.291152756466346)
(-0 0 -0.28281383778979)
(0 0 -0.243806922197212)
(0.305134621459597 -0.0613443539992136 0)
(0.189802597568139 -0.114777630479879 -0.132184834987199)
(0.117099199965668 -0.149680518377465 -0.0864143377745055)
(-0.164835496620361 0.0224602198532121 0.218684861137844)
(0.0928909224359274 -0.225050546403792 0.532581932368836)
(-0 -0 0.12613474488053)
(0.265471441975289 0.405681798698713 -0)
(0 -0 0.125451268741728)
(0.124528728779702 -0.0688545715607321 -0.512652445502003)
(0.402780052281752 -0.346389958185185 0)
(-0.121354274389642 -0.0294454849797049 0)
(-0 0 0.00573755133763404)
(0 -0 -0)
(0 -0 0)
(0 -0 -0.236053294330064)
(0.409612942496953 0.176952048428069 0.215399874638)
(0 0 0.653470644825662)
(-0.408732874623859 0.120079617443418 -0.367781217475353)
(-0.260333260015496 -0.146552205037059 0.507883662823276)
(-0.0777576083427242 -0.210215156358871 0.139340759786324)
(-0.215574676755203 0.136114459653381 0.23137154827009)
(-0.141161201203399 -0.12751814166163 -0)
(0.165264941284281 0.189046852178324 -0.0140301447984608)
(0.302694899387099 0.263880234331288 0.0608591436370057)
(0.00405750222308569 -0.174460422978729 -0)
(-0 -0 0.123643714825237)
(-0.0182823344164129 0.485860877139427 0.226348130652208)
(0 0 -0.28674405059294)
(0.0658029200845852 0.398913291138715 -0.369687809441665)
(-0 -0 0.00844472829380373)
(0.0998601199215809 0.0980692427970253 0)
(-0.12769739073298 0.0152630944561117 0.380121206848323)
(0.125526584681886 -0.251801870064552 0)
(-0.107492761048943 -0.0813398887529346 -0.253714569688277)
(-0 -0 0.135438074456583)
(-0.413325057194243 0.0624428912474985 0.304778107639756)
(0.0291678508545153 -0.301066857633811 -0.380300964582424)
(-0.0368561683710395 -0.172834153204645 0)
(0.117342280623728 -0.224017598722367 0.299528460407653)
(-0.174520792182355 -0.270240674054627 0)
(0 0 0)
(0.0621675193591449 0.21118581571208 -0.117760870957153)
(-0.305750898436504 0.312998632844127 -0)
(0.0831593820783215 0.348338611035275 -0.0394952139480595)
(-0 -0 0)
(-0.125507101635942 -0.0408815454609183 -0)
(-0.194305899033979 -0.29951296318646 0.192886565019438)
(0 0 0.22311620678126)
(0.240998283322359 -0.0660067217502754 -0.251501103660053)
(-0.0866144774288461 0.499306600086517 0.0503658320403542)
(0.0796543246944964 0.258217894914133 -0)
(-0.118895249729184 -0.225131948720314 -0)
(0.0352571947557133 0.214931518934655 0.402694594237299)
(0 0 -0.245697596811049)
(-0.0336845186559122 0.176408275271509 0.0638020938256947)
(-0.0951756080618788 0.563792480889718 -0.00502704694950707)
(-0 0 -0.230836290791523)
(0.188433847008885 -0.0588800630976182 0)
(0 -0 -0.135214727908487)
(-0 0 -0.135567733732105)
(0 -0 -0.0624112972858216)
(0.0417917862534871 0.333914273802245 0.617695972315571)
(-0.175017111751729 -0.17816677149168 -0)
(0.183000276549761 -0.0162533309363159 -0.136315017288625)
(0.0939731744088294 -0.336681402075818 -0.226480842154325)
(-0.097046687307271 -0.173703938492581 -0.221282486072385)
(0 0 0)
(-0 -0 -0.012819837731017)
(-0.250150396545999 0.111108042427102 -0.322461627341528)
(-0.179423882123111 0.358796772176566 -0.248656002205404)
(0.298967449139327 0.0601324952374912 -0.289923256241449)
(-0 -0 0.207949867514848)
(-0 0 0.461589039215534)
(-0 -0 -0)
(0 0 0)
(0 0 -0)
(0 0 0.260582442409866)
(-0 0 0.0955167120106445)
(-0.0360241519165913 0.166005127126012 0.164372248925524)
(-0 -0 -0.399119416726933)
(-0 0 0)
(-0.142476968595932 0.196894729906947 -0)
(0 -0 -0.336976312583056)
(-0.0837777109358542 -0.202360373868618 -0.573234835853938)
(-0.159487725194298 -0.0849765142892979 -0)
(-0.325874025098673 0.0373438865525951 0.253720000294255)
(-0.0155429651566296 0.264252155821006 0.176952610559075)
(-0.0802614070026601 0.462470607567286 -0.261457764095994)
(0 -0 0.0941751215862485)
(-0.092209008462705 0.220120584482148 -0.0176340095165507)
(0 0 0.021593251587077)
(0 0 -0.21856880239713)
(-0.0851851274394908 -0.359236924369407 0.182712927353897)
(0.144161182048946 -0.176654587751667 0)
(0.113097212548859 0.0762101509371836 -0)
(-0.276664904609384 0.218460947179552 -0.804330008645368)
(0.0818835939288878 0.141315002605277 -0.209032012025909)
(-0.234774535776931 -0.253852953851109 -0)
(0.147492555976499 0.0961927817321655 0.26731001426243)
(0.102348868322846 0.177668608312303 -0.0930487888641986)
(0.00643079912852932 0.299995035271402 0.497009890085537)
(0.178534141072944 -0.307644585329012 -0.390589273403247)
(-0.194312104942504 0.125263578862308 -0.507772170190489)
(0.262194879365712 -0.169287645821043 -0)
(0.196147249410668 -0.173686102594814 -0.129025572305152)
(-0.111535569004921 0.103194425761574 0)
(-0.12922049455612 -0.0546452423634206 0.0893745920082486)
(0.158457788933768 0.376468170373908 0)
(-0.151331915437661 0.153704625431652 0)
(-0 -0 0.394042239857725)
(-0.238767735587511 -0.18133388341899 0.358586009360207)
(0 0 -0.17699223301842)
(-0.114894316552818 -0.27475995185779 -0.418412882151086)
(0.0265396523438051 0.217912842055921 0)
(-0.00922872223720142 -0.179449236990047 -0.51655347986044)
(-0.139491613502134 0.105839707960347 -0.539124578820891)
(0 -0 0.343244624230752)
(-0 0 -0.251540936221964)
(-0.197683970621663 0.0641293066561405 -0.427647276337733)
(-0 0 0.165665752138707)
(-0 0 -0.300533716463554)
(0 -0 -0.220806736348097)
(0.0748326347517729 -0.363908866439631 -0.291203531815092)
(0.130092210933751 0.0138817690036028 -0)
(0 0 0.213640890208381)
(0 0 0)
(0.156353472926544 0.081943843836436 0.353167463507988)
(-0 0 0)
(-0.281292985788346 -0.12489394089712 -0.139753160084483)
(0.15970226717635 0.2019687404728 -0.0617144592954144)
(-0.222699979920014 0.147549077482196 0.430083985327162)
(0 -0 -0.502276845775165)
(0.0536165847477586 0.247549644947798 -0.0970873905789194)
(0 -0 -0.213290876970542)
(0.248005200812774 -0.0420550866269762 0)
(-0.055252004549212 0.270736186102273 0)
(0 0 0.615469645583943)
(0 -0 -0)
(-0.0805744591852074 0.357148137132306 -0.285116981776993)
(0.279355161544994 0.290698978790747 0.698125414056181)
(0 0 0)
(-0.104355517532731 0.102769912969507 -0.155024930858653)
(-0.071591483471126 -0.271837649526088 -0.134674057859626)
(-0.326434631868685 -0.0673297434479747 0)
(0.0107066866860232 -0.434945960778875 0.136130498343853)
(0 -0 -0)
(0 0 0)
(0.397173776864184 -0.0497674354357302 -0.00742457875208836)
(0.0908855259356951 -0.374237390188005 0.10219781018058)
(0.0773108805330476 -0.129513026737836 -0.149384181925582)
(-0 0 0)
(-0.0406504378229152 -0.351291805158972 0)
(0.0925097848053519 -0.275475860201063 -0.232268808727961)
(0.292927233373845 -0.23622933077887 -0.314767548871964)
(-0.171149897083914 -0.00734119410526798 -0)
(-0.102232210265238 0.120819904910744 0.269598219850329)
(0.257149888552558 -0.0166538626263207 0.190894484018575)
(-0 0 0.286852097096606)
(-0.172221625438892 0.220460681424353 0.0426547817348673)
(-0 0 -0.195605929369275)
(0.0646027087374734 0.207859377374022 0)
(0 0 0.476096085157791)
(0.0106401982310012 0.691328676077333 0.129430065223562)
(-0.112401872960194 0.0999943699215758 0)
(-0 0 0)
(0 -0 0)
(0.279595950718485 -0.327650342570221 0.0181414046873578)
(-0.00914996327026478 -0.174165090461039 -0.0225890456066836)
(-0.203564639952344 -0.012356862715751 -0.316723927187566)
(0.174393989834783 -0.286934336409219 -0)
(-0 -0 0.205219662603914)
(-0 -0 0)
(0.0972396275692704 0.104170053274001 -0.354818914644518)
(0.0409816502774691 0.459867337648232 -0.302610470663914)
(-0.203966842113039 -0.411558313573558 0)
(-0.163794506170902 -0.164833217268819 -0.177581246435919)
(-0.258399915785086 -0.245630069783296 0.216636686275297)
(-0.00413865305435477 0.167162447702403 0.764496001453195)
(0.352215493135109 -0.16024467805198 -0.349827113217315)
(0 -0 0.197173866524463)
(0.201214514713501 -0.376551916132538 -0.260647316996037)
(0.0245330084991728 0.399833205223135 -0.226865609620031)
(-0 -0 0.166534535094917)
(-0.183472091956776 0.113690518426122 0)
(-0 -0 -0.168766736201222)
(0.047147732952977 -0.155348558560179 0.389890705401952)
(-0 -0 0.216566856036363)
(-0 0 0.461660700429275)
(0.123057803613967 0.188941760591568 -0.179746477842584)
(-0 0 -0.246634082294153)
(-0.0979948571003558 -0.218393663590182 -0.324407823731269)
(0 -0 -0.261101496332136)
(0.0170696096335534 0.576221775463433 -0)
(-0 0 -0)
(0.24929015999441 -0.164087010244697 -0.583091253534223)
(-0.118639487310543 -0.0750545824646218 0.250971209772791)
(-0 0 0)
(-0.183978927843761 0.294186093161709 0)
(0.0734213897922268 -0.376522356998125 0.25355655888113)
(0.186996013558598 0.308108204857362 -0)
(-0 -0 0)
(-0.23573619971767 -0.0389809558965048 -0)
(-0.0339641061662521 0.448115422013938 -0.653219656189622)
(0.094126949292578 -0.125116521377603 -0.183360154714074)
(0.238516331458428 -0.0308339449103747 -0.194231302324456)
(0 -0 -0.278024439744559)
(-0.0614986861403228 -0.371724560335103 -0)
(0 0 0)
(-0.229629341605725 -0.0776436496679698 0.105914186616317)
(0.240974144224939 -0.113291503127608 -0)
(-0 0 0.212328734412463)
(0.244676254160071 0.126328377436206 -0.39005742574126)
(-0 -0 -0.161529295694867)
(-0.21430884048079 -0.2314235324537 -0.183667908918752)
(-0.154162807800501 0.0559546590437979 0)
(-0.144512726114548 -0.246499351012433 0.066287605226891)
(0.0698005927400101 -0.210605274505427 -0.118605922225189)
(-0.233338964033268 0.0447758826357008 -0.417738601149449)
(-0.15033548129803 0.0748387969078036 0.355000048988684)
(0.110981804498397 0.173173216489107 -0.116657202172931)
(-0 -0 0.265165880373396)
(0 0 0)
(-0.106087376998402 0.088150531250814 -0)
(-0.163800168471235 -0.000375119940958672 -0.296363463939251)
(-0.156195135052999 -0.20466760416823 -0.138306243073783)
(-0.248873189453522 -0.0773467457443468 0)
(-0 0 -0.199594210469838)
(0.121244957509193 0.0609312171118288 0)
(-0.15946139502825 -0.141807269474506 -0.135209638772119)
(0.0415653166735493 -0.625901742368938 0.340669579138386)
(0.0381145680782998 -0.175332280981708 0.0170286634849065)
(0.223075702771369 -0.161525016197326 -0.141020138310435)
(0.0895718361609128 0.12893762470276 0.122986645962036)
(-0 0 0.499848583776738)
(0.186855507526309 -0.338018216741743 -0.386202239491924)
(-0.361324658829101 -0.188218508277846 -0.195873101308219)
(0.161312580819014 0.387968856858866 -0.12585122538623)
(0.127987635248112 0.0457997050345372 -0)
(0.115001797071587 -0.373213471996001 0.094411470931578)
(0.0370428750532395 0.34664384657434 0.171722391617362)
(0.110671287430441 -0.0712706707659151 -0.205576264332035)
(0.0767495665707404 -0.191789285218471 0.0247662815025959)
(0.164992351163249 0.014486456858573 0.201770733393832)
(0 -0 0.45884660923334)
(0.0412175752436888 0.174729594389673 -0.419072143269451)
(0.0992120917995187 -0.221949943951497 -0)
(-0.187908643642214 0.282545103391824 -0)
(0 0 -0.341291549215844)
(-0.0990232963527282 -0.47335610963522 0.433370061776827)
(-0 0 0.284383071721173)
(0.0707839562577742 0.58384409147651 0.404879516728095)
(-0 -0 0.308792623431141)
(-0.0831559056843363 0.323778556857461 0)
(-0.26163936892771 -0.141349056343527 0)
(-0 0 -0.273315592236268)
(0.0769372041500832 -0.469747258191038 -0.233695812593871)
(-0.133646044986899 -0.232678375155234 0.192871002718039)
(-0.0659851255053473 0.504843362175655 -0.274615141355183)
(-0.242163728797807 0.176128007513341 0.0675651964163147)
(-0.122595176341141 -0.151709125622486 -0.0915896365506987)
(-0.0764995665119819 -0.322131760839274 -0)
(0.0722501326372079 0.332802255198739 -0)
(0.250251634242014 -0.110389006648244 0)
(-0.0355133355068289 -0.170895105156262 0.177629798538681)
(-0.136232806237275 0.121739466737936 0.277737512429016)
(-0 -0 -0)
(0.00808209402454854 0.380727831932455 -0.402825985624599)
(0 -0 0.136080341052096)
(-0.00962610720022158 -0.169011283338076 -0.306383633514475)
(-0.0127323756671267 0.295157585662621 -0.281174491616652)
(0.200364944466544 -0.232039290514391 -0.178549651342904)
(0 -0 0.280967277499055)
(-0.484278286820057 0.0992063090409213 -0)
(0.2107594746776 -0.00639388887544862 -0.3549704839209)
(-0 0 0)
(0 -0 0.170128731617289)
(0.0490853767395354 -0.650888686858288 -0)
(0.181836408484859 -0.115678821114098 0)
(0.0579290144058328 -0.293275931475301 -0)
(0.311120583786667 0.0632295029519576 -0.166606498108899)
(0 0 0)
(0.0825516442395742 -0.124375719503541 -0)
(0 -0 0.11623298252598)
(0 0 -0.309623322172958)
(0 0 -0.271446246243283)
(0 0 0.400791772492855)
(0.0454563144394459 -0.311508838271532 0.0469185133775877)
(0.185627665015357 -0.248407072848663 0.0888155084721638)
(0.118468564917025 -0.0534795077698769 0.180730008381307)
(0.21278162050355 0.106311914993288 0.143243833240847)
(-0.175164211589249 0.300935077845681 -0.0817103229951751)
(0.0588261688955195 -0.156545874335398 -0.603649497428809)
(-0.148359114185303 -0.0821157823471865 0.25725003099185)
(0.274155986315595 0.229354621273338 0.247205659331177)
(0 -0 0)
(0 -0 -0)
(-0.0910382875964189 0.1360830636141 0)
(0 0 0.322449265691868)
(0.149519316252713 0.0933670339843997 0.322875973606333)
(-0.0274702678513707 0.255928971395358 0)
(0.211152624232952 0.221442767325599 -0.278087781742096)
(-0.168369923059054 -0.3335379486262 0.0990037732466803)
(0 -0 0)
(-0.129605713173886 -0.410998250527969 -0.356416014471227)
(-0.290132462894978 -0.0345098673977711 0.169121296111876)
(-0.109650286852385 0.276775302907081 -0.00354853186552101)
(-0.182071924153294 0.126715474316418 -0.351973097534882)
(-0.181051942442393 -0.224981503398153 -0)
(-0.129085289005084 0.0434863154139549 -0.151891707558417)
(-0.154645528447135 -0.161784690067269 -0.524359474150718)
(0.0645010833661093 -0.345350493713564 -0.291692045324621)
(-0.160890623514803 0.0810433025054126 -0.103149987902285)
(0.216445681875079 -0.410100467359213 -0.0581314804499395)
(-0 0 0.572977301561645)
(0.125021930482936 -0.0663486635764122 0.309737581715446)
(-0 0 0)
(-0 -0 -0.186172794325836)
(-0 0 -0.201544044302877)
(0.0820018271473371 0.280344042700578 0.0409413958850316)
(0.103672500575101 0.343901307894945 -0.0551862911599401)
(0.237513208515476 -0.291748696065978 0)
(0.163174269589983 0.0129182100393476 0)
(0.0258522378693663 -0.179122501079205 -0.290115308202866)
(-0.144481518768824 0.0908652620033636 -0.205441473391319)
(-0.00143486203140093 0.310954078103159 -0.226677239963628)
(0.205334633320945 -0.13142475944252 0.0454428644609479)
(-0 0 0.221266903021097)
(-0.204578739189202 0.227467617327681 0)
(0.0288606517090383 -0.250335919809623 0.227593492157427)
(0.118493174687134 -0.0527824332098625 0)
(-0.170430706636684 -0.18491764862693 0.320828412472517)
(0.0983534622267929 -0.279951859313914 0.00875913137086381)
(0.155016020954756 -0.465324295744567 -0.209575682094875)
(0.126055011887799 -0.348093691133393 -0.19259298797651)
(-0.402335477599061 0.156043505472543 -0.0547379862222152)
(-0.0399666393739857 0.225914354042505 -0.359031938879003)
(-0.00335075163415672 0.645066948675237 0)
(-0.0305647329562867 0.226137205568529 0)
(0.037652763336605 -0.333930943498564 -0.0375125190934557)
(-0.218368837815405 -0.168151593948848 -0)
(0 -0 0)
(-0 -0 0.221891976605422)
(0.225571334209113 0.152855619237963 -0.0847140048411099)
(0.117285048465017 -0.166773082160881 0)
(0 0 0.339021044880447)
(0 -0 0.181830312029458)
(-0.168026493495595 -0.37853771017657 0.316519476980376)
(0.188358674248124 0.0988180502077648 -0.293973756585268)
(0.161047818215645 0.279954430516822 -0.0816329851411451)
(0 0 -0)
(0.228176619878093 0.440514119648606 -0.209488718145708)
(-0.108665180612591 0.0809297799249789 0)
(-0.183221631762329 0.140624738356315 0.033479594887131)
(-0.247456409834517 0.341532839713638 0)
(-0 -0 0)
(0.365390046512424 -0.402364318613279 -0.121990331409647)
(-0.362901958244606 -0.101641288108206 0)
(0 -0 0.00642598296800382)
(-0 0 -0.249590052266659)
(-0.219037134125945 -0.132336269229778 -0)
(-0.213571413843423 0.0613457348890949 -0.0473842214476906)
(-0 0 -0)
(-0.26085528105802 0.00589270090039424 0.285514674594644)
(0.125505045537151 0.438439046710905 -0.425540970791374)
(0 -0 -0.0482100893649099)
(-0.327870711056112 0.0493811680807281 -0.134874324486995)
(-0.117381330716231 0.0666271191782652 0.266843731363756)
(-0.303226341880033 0.251630543872998 -0.525098719379574)
(-0 0 -0.370398389142974)
(-0 -0 0.28949110598247)
(-0.19064230122639 0.467075578114072 0)
(0 0 -0.0254947959091642)
(-0.122427649948868 -0.0550874059257755 -0.266789315517466)
(-0.280127055762402 0.00931775303328787 0)
(0.27593399999573 -0.143247137411865 -0.0745819134597683)
(0 0 -0.0312378632144108)
(-0 -0 -0.0261364702106498)
(0.321539277213385 -0.0806759956303025 0.232607632171618)
(-0 0 -0)
(-0.028892750048445 -0.222061402106545 -0.414014243282106)
(0.08409959570121 -0.323385196578705 0.0670761562289309)
(-0 -0 0)
(0 -0 0)
(0 -0 0)
(-0.27428244249531 -0.0149715705201642 0)
(-0.26903586797547 0.0539550812175184 -0)
(-0 0 -0.342152982694669)
(0 0 0.0516905529832889)
(0.124372192474533 0.00713641098753109 0.424019781591618)
(0.256104684845447 0.0739511744190011 0.181625468851848)
(0.214356855154578 -0.118456058441313 0.440831782297237)
(-0 0 0.244694631990042)
(-0.130831191101888 -0.0459943108665332 0.12477512920115)
(-0 0 0.274770561556375)
(-0 0 -0.164461639644986)
(-0.520395751941135 0.0712387701518746 0.128627006303479)
(-0.00649543826449027 -0.167783836739526 0.17693784848419)
(-0.215123816356457 0.0393843615841846 0)
(0 -0 -0.365180034672901)
(-0.113508017045536 -0.172454976590458 -0.31869194466069)
(-0.315949111358032 -0.056914922645693 -0.205890755472938)
(0 0 -0.428906589437132)
(0.0909897706996819 0.197861984125233 0.0707060676338394)
(-0.434886490109533 0.391608175951656 -0.0392964403010983)
(-0 -0 0.25625129442344)
(0 0 -0.266668251254159)
(0.0571925130155023 -0.406781134532237 0)
(-0.363449208892188 -0.0496770759666087 -0.435344328955039)
(-0.248704521987933 0.0159394034865065 -0.56806250268132)
(0 -0 -0)
(-0.047618709529258 -0.163988703532516 -0)
(0.324871406286359 -0.187429645294054 -0)
(-0 -0 -0)
(0.0849440439917106 0.1941995086274 -0.130986607585496)
(0.085811113392189 0.13090356439959 -0)
(0 0 0.00246879533882031)
(0 -0 0.115070997629637)
(0.138157701239923 0.364981749288526 0.326308403887945)
(-0.157778058669467 -0.130293445877414 0.161501449607155)
(0.0882858039560923 -0.219978528619468 -0.193461664393185)
(-0.275275468155594 0.229117059967461 -0)
(0 0 -0)
(0 0 0)
(0 0 -0)
(0.214983825868794 0.117170202074368 0.211501419546001)
(0.0663548998968843 0.330417375787388 0.30188159745751)
(0.103155825841398 -0.100929961603692 0.193477313308846)
(0.375496017214865 0.0368944587319242 -0.349844898500629)
(0.242655277360194 0.00769011301715789 -0)
(-0 0 0.469297996741157)
(0.0316839579434389 0.295582091383192 -0.17958474529662)
(-0.103069850812787 -0.103459069546473 0.181366847518851)
(0.0748344366643759 0.15121209304586 0.380782825620926)
(-0.270189679509821 -0.115679540770566 -0)
(0.161963528408498 -0.0619494306933866 0.436267500308897)
(-0.0192247293984882 0.281377275929061 -0)
(0.0476364352988605 -0.244801672379905 0)
(-0.2147433388011 0.31062586733861 -0.117284968457356)
(0.407722585691181 0.101217557591508 -0)
(0.18217846185456 -0.0650530144428728 -0)
(0 -0 -0)
(-0.0478297207364112 -0.336156217530355 0.273505272293388)
(-0 -0 -0.218259746205241)
(-0.21553319365592 0.0118812399526371 -0.307600788023117)
(-0.293516928896514 0.329858015900464 -0.107098885097597)
(0.243102160186937 -0.0790310130408996 -0)
(-0.127774007718385 0.0583234055725451 0.235552615715496)
(-0.0657547921474124 -0.241362110809163 -0)
(0 0 -0.30819704323265)
(0.153182926407136 0.0651245761510563 -0)
(-0 0 0)
(0.143463241946948 0.221333382823127 -0)
(0 0 -0.246928460087763)
(0.164495745354288 0.0194870839883933 0)
(0.102971346506287 -0.383412819687012 -0.27889158331861)
(0.138380642099654 -0.114183487168712 -0.306429803872207)
(-0.258098438508906 -0.154635310862267 -0.0511795004115023)
(0.0665219402573166 -0.160589138032312 -0)
(0.389553733738888 0.068595791631785 0.322011305743864)
(0.218780738196191 0.0266081637393434 0.243833193419521)
(0.157854886191413 -0.0724602850074331 0)
(-0.163941129743968 -0.238139626943949 -0.221451000582954)
(0.118037941484056 -0.290494011384151 -0)
(0.128011083461865 -0.0517981534601619 0.257115525555586)
(0 0 -0.456380416604672)
(-0.253209258276069 -0.130767231263943 0.0252520037610911)
(-0.0367074055121201 0.162119256597023 0.164320655556235)
(0.134275573226505 0.0243536163255513 0.299820822714869)
(-0 0 -0.262896905332959)
(0.220057117792243 0.046923397764036 0.126986061182604)
(-0.0901981249275159 0.190501356479246 0.0595799894125318)
(0.350168377942582 0.209266100772825 0.401990844888239)
(0.0236105253384235 -0.249512658767499 -0)
(0.182467898493746 -0.162777783998187 -0.378590806511649)
(-0.00357436678743257 0.255569546495819 0.161803111255748)
(-0.0714430212702252 0.406951828382746 0.00829778640791162)
(0 -0 -0.0739175232424454)
(0 0 0.0602309859889431)
(0.20894074935007 -0.0879656057484724 0.205701395526327)
(0.192711404780793 -0.43695684503275 -0.167780731027975)
(-0.0564030451423286 -0.149651211291679 0)
(0.127073946834145 -0.00856836409378236 0.139425259380253)
(-0.0380965321607664 -0.214837433301856 0.0433724340887224)
(-0 0 -0.264153377149397)
(-0 0 -0.312394581498662)
(0.0189223298038998 0.254815159778559 -0.367625964801845)
(0 -0 -0.0119148384375396)
(-0 -0 0.134401875642152)
(0.0921459664527926 -0.131676426783084 -0)
(0 0 0)
(-0.183563818360557 0.277743665575672 -0.12947448639452)
(-0.0974692016327412 -0.557554384574075 -0.0295440452003158)
(-0.0451578490155403 0.250036896989591 -0.430810219100766)
(-0 0 0.208131720358709)
(-0 -0 0.0618142319132906)
(-0.143339659918823 0.251025485439205 -0.480191810454024)
(0.172482589448709 0.247637924410311 0.28610271812459)
(-0.124921933960177 -0.218325344414415 -0.0883195265076893)
(-0 -0 -0.456544753915533)
(-0.179780120657205 0.148681735530266 -0.454166826120608)
(0.268068235801231 -0.172268615226057 0.177776151116109)
(0.0277551581949724 0.22880822411583 -0)
(-0.0468286899713777 -0.402128327728903 -0.309511075123499)
(-0.20791428360341 0.197370055256944 0.361709872738745)
(0.180098168639523 -0.0901767714448444 0.972802511572115)
(0 -0 0.461503451630188)
(-0.157999642004372 -0.201988024280241 -0.217399377379447)
(-0.0424018063957602 0.157605874876943 0)
(-0 -0 -0.202037425901405)
(0.0136604229019887 0.168243073568847 -0)
(0 -0 -0.139210041231197)
(0.00288844669271049 -0.235754969891223 -0)
(0.0886790002485655 0.127408461493544 -0)
(-0.043602611050948 0.171811554047007 0)
(0.115242922742453 -0.210833760024681 -0.185027140803785)
(-0.096179725713171 0.1818336945511 -0)
(-0 0 -0.190668353243066)
(-0 -0 -0.188320515460961)
(0 -0 0)
(0.308977327032026 -0.113073473204046 0.0860926347293655)
(-0 0 -0)
(0.0293107789161489 0.348737573112531 -0.346552425725898)
(0.0516051631215816 0.53719637559693 0.0300670940828865)
(0.095138549736103 -0.337333062212584 -0.341342716516151)
(-0.230084398347228 -0.230113618171378 -0.190975643988925)
(0.164099025543794 0.275598660750413 0.433660625147295)
(-0 0 -0.0390838385274566)
(0.00203098834613034 0.368465875983436 -0.488348740317747)
(-0.330031034175349 0.222573693742584 0.199168537935401)
(0.217474658134901 -0.028423149903119 -0.338192123383329)
(-0 0 0.268548758686949)
(-0 0 -0.462322178014994)
(0 0 -0.547733194466076)
(-0.277027757526393 0.139289507366784 0)
(-0.155331520318993 -0.0699565902505766 0)
(0 -0 0.293623944974876)
(0 -0 0.0669665614852067)
(-0 -0 0)
(0.375516123671419 0.455759823856447 -0.316488657501081)
(-0.126683332626905 0.0404870603665902 -0.0164587043336193)
(-0 0 -0)
(0.0782508625537927 0.397408520073408 -0)
(-0.0329163943740879 -0.299196355522347 -0)
(-0 0 0.0723934988307679)
(0.279900197816189 -0.0538037957445277 0)
(0.0396301517981387 -0.157820106953091 0.0284999862087184)
(-0.0173815349591496 0.168142422164836 0.313052918992805)
(-0.10506067987741 -0.092508312332031 -0.313481223071679)
(0.149754054679714 -0.242609673279516 0.101715539962315)
(-0 -0 0.17534657648007)
(-0 0 -0.279435688816673)
(-0.21751204190092 0.0279447230356656 0.0609079474247172)
(-0 0 0.215933890394181)
(0 0 -0.197314701404361)
(0.0329137136203809 0.228696784789548 -0.572575226253666)
(0.122799289924836 0.348786423310152 -0.181826392912276)
(-0.0513407689145339 -0.169314464950919 -0.371198929124756)
(0.215148539526947 -0.254072734506455 0)
(0.0787948244416227 -0.259913388980189 -0.188376025920867)
(-0.036042859503077 0.26990863415417 -0)
(-0.248602532028639 -0.172684423810661 0)
(0.256203887651197 -0.366296374794375 0.277625568784858)
(0.190882632857553 0.0853942734106982 0.226163834939942)
(0.143111447017363 -0.23433908763114 0)
(-0 -0 0)
(0.139219995416848 0.118820924347325 -0)
(0.227006185713165 -0.0853243085355214 0.024161088307829)
(-0 0 0.429743730200623)
(-0.161697510560318 -0.330916243919129 0.398745169232367)
(-0.13978550886736 -0.319160324480504 -0.171525241804481)
(0.0431095051174315 -0.3832745306553 -0)
(0.0894008186885689 0.130840507636847 -0)
(0.213114283349456 -0.0800894711999555 -0.0921655257692752)
(0 -0 -0.0732468606408156)
(0.163200646810261 0.120759856378117 -0.0501141980586368)
(0.0990590345507784 0.370607265887376 -0)
(-0.102058932865477 0.106083811008148 0.0165326359766897)
(0 0 0.21329125666581)
(0 -0 0.403980311444235)
(0 0 0.218693438215145)
(-0 0 -0)
(0 0 -0.510868832788841)
(-0 -0 -0.446689960506664)
(0 0 -0)
(0.110157349417172 0.17260499189832 0.217966848994976)
(-0 -0 0.606356489037518)
(-0.0138729197951921 -0.224262493018265 -0)
(-0.108489690674386 -0.106740413104089 0.406753214732099)
(-0.0029756557411539 -0.399107963341269 -0.277949118066237)
(-0.235051191763846 -0.043609677926938 0)
(-0 0 0.215500511954551)
(0.120492989528262 -0.230983245380679 -0.171788096151722)
(0.0527708803801872 0.162508422679503 0.350132355473498)
(-0.169719002327236 -0.159959438206755 -0)
(-0.0396131034274352 0.270139666833216 -0.426025012716702)
(-0 0 -0.58617175337732)
(0.316014954413694 0.133763965542549 -0)
(-0.193777099135197 -0.337110197537002 -0.277290361686034)
(-0.048937164152337 0.156875038853961 0.212451740698321)
(0.331436746130041 0.00806547226077967 0.626294633839303)
(-0 0 0.333648630464721)
(-0.250725929745333 -0.131273092848835 0.322867719720179)
(-0.178168171324971 -0.165864461927034 0)
(0 0 0.301346989820069)
(-0 -0 -0.183911241745035)
(-0 -0 -0.303847817709853)
(0 -0 -0.266711741625991)
(-0.447041155169593 0.5767179772371 -0)
(-0.276683328842175 0.029619709771445 0.0455261286377366)
(0.0782492876365386 0.139993150507396 0.203845963315956)
(-0.119877886314149 0.0823998092690188 -0)
(0.162196137688861 -0.0765654930553474 -0.223989783132855)
(-0.156743868489951 -0.467430550715966 -0.284360867664525)
(0.312596803161388 0.0879892688108661 -0.338133109975285)
(0.0973311547800981 -0.104010744651307 0.352346308038261)
(0 0 0.167850155141266)
(-0.210412326890579 -0.116634176109361 0.229493961043277)
(-0.0614558160450012 0.153911652950438 0)
(-0.106892990005065 0.610377941063175 0.271043075543966)
(0.0955910345891936 0.117275223963244 -0.111815383802621)
(0 -0 0.0278056217707156)
(0 0 -0.107022628499712)
(-0 0 -0)
(0.0385208315775326 0.570082675292165 -0)
(0.148009674896929 0.156557928414767 -0)
(0 0 -0.315706364269172)
(-0.194492373477487 0.230716021227838 0.0997498052417265)
(-0.174143652287527 -0.211796615785737 0)
(-0.144261887176395 0.0954002606166581 -0.0171435162827843)
(-0.32622857776414 -0.242990656803913 0.511989943903143)
(0 0 0.609612267613986)
(0 0 -0.311950272876099)
(-0.256705020424593 -0.0354594461893651 -0.714688722463081)
(0.0457169582637005 -0.215353449220483 -0)
(0.260339964970943 0.067756980749427 -0)
(0 0 -0.048411838762912)
(0.0106825411267615 -0.184145355817597 -0.282661335108768)
(0 0 -0)
(0 -0 -0.502783374336664)
(0.10403848576184 0.317156789914863 -0)
(-0 -0 -0.0104761732413089)
(-0.221453528714736 -0.140149204149943 -0)
(-0.200240957990558 -0.0818612553490405 -0.305448227396385)
(0 -0 0)
(-0.0354374687715918 0.164527296949596 0.381356400729738)
(-0 0 -0)
(0.188372887903948 0.251436086621274 -0.114209223790276)
(-0.318759538596552 -0.0764399229933145 -0.081098558456017)
(0 -0 -0)
(0 -0 0.200023261418577)
(0.536981088008057 -0.12240363803929 -0)
(-0.107336829818203 -0.0845509332436464 0.173915828943573)
(0.206281002549356 -0.0960879917462484 -0.354655586836264)
(-0.372671728754156 -0.168046207021198 -0)
(-0.00351351157723662 -0.170546038841962 0)
(-0.0198331547542505 -0.286432244595943 0)
(0.170165652012817 -0.0970665620563351 0.0470002031987415)
(0.230837776856672 0.0794082360328318 -0)
(-0 -0 -0.165784436749505)
(0 0 0.260449085843495)
(-0.108115347282606 -0.106192566021276 -0)
(-0 -0 0)
(0.0569394312442563 -0.393277173452921 0.506390551866013)
(-0 0 -0)
(0.113956403494665 -0.0715483044567899 0.516465234045164)
(0.113668118475911 0.0656257034612377 -0.12859764931321)
(-0.0201732122248381 0.181902933517763 0.338809038770007)
(-0 -0 0.271631037024159)
(0 0 0)
(0.143821757651912 -0.329539082807996 -0.37805968244713)
(0 -0 -0)
(0.146820220467136 0.263628309780628 0)
(-0.122990651924059 -0.195898246378965 0.414498358124768)
(0 0 -0.203880213370117)
(0.140961338894599 -0.120229785535079 -0.427195003376008)
(0.10573413418575 -0.107362444819909 0)
(0 0 -0.19580931137744)
(0.0873711188657475 -0.737602614562205 -0.213567759054122)