/*--------------------------------*- C++ -*----------------------------------*\
| =========                 |                                                 |
| \\      /  F ield         | OpenFOAM: The Open Source CFD Toolbox           |
|  \\    /   O peration     | Version:  2.4.0-MNF                             |
|   \\  /    A nd           | Web:      www.OpenFOAM.org                      |
|    \\/     M anipulation  |                                                 |
\*---------------------------------------------------------------------------*/
FoamFile
{
    version     2.0;
    format      ascii;
    class       vectorField;
    location    "0/lagrangian/polyMoleculeCloud";
    object      pi;
}
// * * * * * * * * * * * * * * * * * * * * * * * * * * * * * * * * * * * * * //


4298
(
(-0 0 0)
(0 -0 -0)
(-0.0749354069109804 -0.0595965842116031 0)
(-0 0 -0.108609825845875)
(-0.0631965756090398 0.158900452447093 -0.178224577659465)
(0.154800126127495 -0.0302217583743887 -0.205310717399596)
(0.074388868366143 0.081791050693842 0.40544786244872)
(0.276531066522215 -0.00613104799318721 -0.188171538642592)
(0 -0 -0.285485374665256)
(0.0410316290272921 0.306131260124086 0)
(-0.12050534735981 -0.118861345062332 0.203989365743271)
(-0.145421991536641 0.0947958769745136 -0.24266233673549)
(0.0581731119793884 -0.0923455672587801 -0.246646245291378)
(0.13909536648489 -0.335265164752574 -0.132478158253303)
(-0.251836587836872 -0.191340817541226 -0)
(-0.122660303879881 0.240932719322862 -0.401964546239216)
(-0.17428557210499 -0.133614722769956 -0.0200391535326815)
(0 0 0)
(-0.271849276481759 0.0462499778648202 -0.189773349802578)
(0 0 0.262726133034334)
(0.25135733439254 -0.25540567964863 -0)
(-0.0517060172711852 0.107171108463322 -0.219308606124164)
(-0.16720122869627 -0.112063615776917 -0.135388393219646)
(-0.119185981484509 0.0229423780808954 0.513828168299973)
(0 0 -0.201023020138251)
(-0.106074733166281 -0.161195041891525 0.0129652867472142)
(-0.141459018570367 -0.243267084864448 0.135876692051657)
(-0 0 -0.0623492766860291)
(0.110048507150409 0.219241116451477 -0)
(0 0 -0.10763296596675)
(-0.116950301212036 -0.0117307723763687 0.0228614054499305)
(0 -0 0.380560738875833)
(-0 -0 0.064382903664532)
(-0.0589795481224491 0.0998227164274038 -0.0958248245125513)
(-0.0742564381842132 0.0722289826740969 -0)
(-0.0590952148579612 0.0925115284869939 0.257701508002738)
(0.0205487581938608 -0.119019224229672 0.430623466745907)
(-0.0855626953767504 0.0383544046591008 -0.100889051500236)
(-0.0549771198006716 0.100133003605957 0.194225914178828)
(0.244353646603406 -0.0329790184565697 -0.314308568938664)
(0 0 0.0157820093518586)
(0 0 0.189875127890227)
(-0.0118680445333493 -0.119348878304108 0.110843289906529)
(-0.0123511615751304 -0.117877347628563 -0)
(-0.224292484572015 -0.241701918290158 -0)
(-0.151015273105672 -0.0504655981301072 -0)
(0 0 0)
(0.0350250780181779 0.371174314047277 0)
(0 -0 -0.143131050085087)
(-0.254612283429454 0.0697241787774392 0.0893967030998301)
(-0.0785307587071601 0.061636441040606 -0.214604092804602)
(0 -0 0)
(0.0321943458468842 -0.261015537283416 0.129245147611558)
(-0.184030914974512 0.292692967039911 0)
(-0 0 0.24240688756094)
(0.0397008041099329 -0.148317709642161 -0.0100505167783614)
(0.0534051153600954 0.162375928706646 -0.151300692152855)
(-0 0 -0.00560461864657517)
(0 -0 0)
(-0.00242151358752037 -0.127988384844669 0.298457984729645)
(0.0767727054104058 0.153195432649349 0)
(-0 -0 0.0410473464574196)
(-0 -0 0.288338306631992)
(0.0706331662871111 0.0841380207205144 -0.179222272960232)
(-0 0 0.222995386587467)
(-0.0621971737476288 0.281146706386828 0.11920970356566)
(-0.0946918461009222 -0.0123488447941872 -0)
(0.248656503668124 -0.235219900245122 0.300717203532574)
(0.0124835458084879 -0.127592340257212 -0)
(0.196732922034207 -0.0112038573577079 -0.300177134678824)
(-0.0884913981006101 0.001613938074583 0.153502653855409)
(0.156040125420222 0.068269077676864 -0.409233340639297)
(0 0 0)
(-0.00687244069969441 0.12497311864396 -0)
(0.0250678291785221 -0.177081182331154 -0)
(0.152126171860279 0.1232555372254 0)
(0.121586928354584 -0.170619148058661 -0.280406150045116)
(0.0691607690433004 0.207401182962994 -0.0232978869430267)
(-0.222630731552959 -0.0380415581143653 -0)
(0.0854445366508031 0.0286832618128648 -0.173058389094837)
(-0 -0 -0.151404310006465)
(-0.145301333161807 -0.100679852234066 0.138574329240933)
(0 -0 -0)
(-0.0688116908558647 0.150949913563532 0.131161755401921)
(-0.0755262641222336 -0.156167500431843 0)
(-0 0 -0.0518620083321692)
(0 0 0)
(-0.220187576787745 -0.104643009722598 -0.112331558008647)
(0.0811210788622792 0.223303025859759 0.248971609249705)
(-0.0665802048715418 -0.165205863328444 -0)
(-0.122640169543797 0.196741200116945 -0.165704320561259)
(-0.0305761989448728 0.20673860892215 0.0736365282708323)
(0 0 0.222243527057972)
(0.0288694297159473 0.113749326642141 -0)
(0.0881587139127088 -0.00276457323180101 -0.279867659638188)
(0.171743395119684 0.110646622156498 0)
(-0.091932252508709 -0.264110067052154 0)
(0.075123288556885 -0.391604525279805 0.0234085131583938)
(0.0124227559445169 -0.30891341075617 0.0966081554476065)
(-0.104826976138734 -0.0819750907312868 -0.0291343969652884)
(-0.161241964477246 0.0784506359104239 -0.426144825939593)
(0.14962044810205 0.121069040333791 0)
(0.270564539984148 0.063004576087147 0.201005379750668)
(-0 -0 -0.267363091022526)
(0 -0 -0.109289370648533)
(0.109631607373348 -0.107847790124021 0.436851758411925)
(0.288827843902147 -0.039839444292649 -0.435356263247066)
(0 -0 -0.0507874407493406)
(-0.0850687353526071 -0.299155394748131 0.10556053145475)
(-0.0924611310814406 0.0352519339328577 0.52155687337341)
(-0.123020075958411 -0.203558210975234 0.0583819534182787)
(-0.21181069308749 0.134900110928247 0.108289398428395)
(-0.146382069269991 0.136562744097545 0)
(-0.00832338637908875 0.127168613955373 -0.158348744674843)
(-0 -0 -0)
(0.104733609614095 0.061894066427558 -0.0747397461047926)
(-0 0 0)
(-0.0775225183002065 0.172510032844567 0.124177821022286)
(-0 -0 -0.032541127953138)
(0 -0 0.0827147594457444)
(-0 -0 0.292642135231634)
(-0 -0 -0.217376469569885)
(0.0811103608630051 0.301339801421056 0.0870735616739318)
(-0 -0 -0.212708856984609)
(0.115056230477871 0.114750887520416 -0.238732747459851)
(-0.11923625611701 0.153276285832327 -0.201240837142426)
(0.313192842142407 0.0667860547334877 -0.136918338537182)
(-0 0 -0.248741714633057)
(0.0916863489694115 0.101477745382826 -0.096978399055481)
(-0.125900276449785 0.221624848521323 0.158802681269993)
(-0 0 0)
(-0.0774396305440812 -0.289837797144577 -0.279755616309041)
(0.304470691782649 -0.0551481095910836 -0.0325914724951129)
(-0.0963385977257353 0.18481800664525 -0.268865319588632)
(0 -0 -0)
(0 -0 -0.193301542803988)
(-0.160593833467447 0.0610121428078008 0.199719257403254)
(-0 -0 0.0521409164438202)
(0.139634409244649 0.111091734230466 0.127257043589521)
(-0 0 0.116165405722134)
(-0.0325761298005922 0.160858200007005 0.371885556441065)
(-0.0294450695291686 0.314285606158373 0.0896278603328135)
(0 0 -0)
(0.214014961865263 0.102191127113731 -0)
(-0.132768404411552 0.0229258575128996 0.0605221276451496)
(-0 -0 -0.155932913170906)
(-0.053134106622456 0.241494607990936 -0)
(-0.0560757333734813 0.268146254527988 -0.180534850442686)
(-0.0769065670820822 -0.154910848909384 -0.127841331243341)
(0.163987725193036 0.107100326760318 -0)
(0 0 -0.101807831181364)
(0 -0 -0.0102385677942586)
(0 -0 -0.228193303473942)
(0.0957166644802135 0.193507600733883 -0.28044693358121)
(0 -0 0.486397410593803)
(-0.0606642969819765 -0.0943937337907289 -0.321781477164086)
(-0.157449917293929 0.0231059128451623 -0)
(0 0 0)
(0.237198736386853 0.00232418774321477 0.0196230776737704)
(-0.0218523590962188 -0.380668360512628 0)
(0.132646878824755 -0.0275527880884068 -0.0889680727038031)
(0.156149451928919 -0.0332585855647723 0.195327630766386)
(0.133358205660993 -0.323715865215489 -0)
(0.0428699252618505 -0.106957825600517 -0.356202355897929)
(0.126051872930983 -0.12484145489906 0.375851438977581)
(0.142175468257677 0.129016857684957 0.0589916065210354)
(-0.0317926000356842 0.216134179307933 0.188218297824808)
(0.108735455746585 0.140553968276391 -0)
(-0.0368500636017233 0.174159553746765 0.45904984557844)
(-0.12319992739261 0.148518191440862 -0.236957448042222)
(-0.13623614208777 0.12809674397302 -0.249244915511522)
(-0 0 -0)
(-0.0952843346039823 -0.000348168207772834 -0)
(-0.00924480866442351 0.124583583085084 -0.104773826562497)
(0 0 -0.203376404625715)
(-0.0197023087310789 -0.336483750903222 -0.262117052938324)
(0 -0 0.324516526614934)
(0 -0 -0)
(0.0805883506342468 -0.352354535389931 0.000590395394817758)
(0.0656621946195332 0.229439923995727 0.100443851842529)
(0.00224100760646459 -0.233313653111187 0)
(-0.154379605163664 0.188663765884405 -0.428904294506008)
(-0.14727358809654 0.22423449157354 0)
(0.108082922480791 -0.131225023715466 0)
(-0 -0 0.257641129212348)
(0 -0 -0.409790884962837)
(0 -0 -0)
(-0 -0 -0.260891904259625)
(-0.13653567541696 -0.115421013327313 -0)
(-0.0568442658356285 0.0970424356003459 0)
(-0.0904876279498724 0.175977176037206 0.102375279686079)
(-0.152768005023277 -0.142916060471167 -0)
(0 -0 -0.150388254059059)
(0 0 0.181608423816738)
(0.0427133550096246 -0.250595923178311 0)
(0.0858375147471767 0.0496331622458818 0)
(-0.0689448121831856 0.127362452398602 0.0151934224580114)
(-0.132056296574526 -0.161883225518734 -0.0461573805527105)
(-0 -0 0)
(-0 -0 -0.119945783548919)
(-0.0207507769021926 0.116821547500655 0.27667507248662)
(-0 -0 -0.0858776754439413)
(0.118551119662601 0.0365585292426427 -0)
(0.182468393743972 -0.192495352540647 -0.0666383134986142)
(-0 -0 0.030209186557599)
(-0 -0 -0.0535733429541236)
(-0.220693759102877 0.200976449744407 -0.106197348927526)
(0.0712469273800092 -0.0801869156980421 -0)
(0.182654772016142 0.25753833178832 0.0688286772915505)
(0 -0 0.174279309170958)
(-0.0560222058618546 -0.241404799039552 -0.228283767255956)
(0.0411484667979387 0.118858659762839 0)
(-0 0 -0)
(0.196323179963065 0.0389540022774566 -0.283626689359291)
(-0.0882635997912044 -0.00361534743658244 0.3197051667843)
(-0.172423910966365 0.015412299520565 0.128351290534057)
(-0.102993078178648 -0.201482869842198 0.152255597247328)
(-0.0298087457494062 -0.18068948884163 -0.172706451722381)
(-0.147910164841075 -0.139279822716012 0.0106395722019707)
(0.0926422941372968 -0.0978366345061518 -0.26417829076913)
(0.0267164340075128 -0.371312456939197 -0)
(-0 -0 -0.22728408780993)
(-0 0 -0.0341302160738789)
(-0.153692048313693 -0.00621545482976746 0.243807305765275)
(0 0 -0.078711762563852)
(-0.0860338499049596 0.0529221167725365 0.337350450733959)
(-0 0 0.224769325543996)
(-0.0567229280228458 0.104323625504352 -0.430727379932361)
(0.0845251065718967 0.0621300003297596 -0)
(-0.0861778665897548 0.00812833798617085 -0)
(-0 -0 0.0484151775387429)
(0.0468179050584951 -0.106729264191123 0.199545679318608)
(-0 -0 0.134478837340855)
(-0 -0 0)
(-0.10954186110158 0.178807213525227 0.289935563170937)
(0.100273305052012 -0.0802360416684352 -0)
(0.0833511189408986 0.113465522466908 0)
(0.16070315552784 0.157004998270955 -0.0297879772442522)
(0.0937039120994085 -0.213687916647329 -0)
(-0 0 -0)
(0.277974089461882 0.111862199173256 0)
(-0.108418279449867 -0.166720297494964 -0.139437970711525)
(-0.0616348779497316 -0.0966355292340437 0)
(-0 -0 -0)
(0 -0 0.30409633701965)
(0 -0 -0.134394308849708)
(-0 0 -0.0401328753968688)
(-0.277305450263195 -0.0329420088638634 0.243590209099677)
(-0 -0 0.251245842337845)
(-0.0194812938463961 -0.206597124672119 0.11816271864357)
(0.044624369043778 0.10904366729725 0)
(0.0572369573664282 0.100666217340109 -0.684851433803191)
(-0.0914542408269092 0.00525557747618054 -0)
(-0.067167540423476 -0.0788689655913473 0.191662274759038)
(0.147639067145091 0.0246458570598787 -0.010580467960578)
(-0.0866192294922463 -0.0155823730438671 0.283837192761779)
(0 0 0)
(0.0876674748477701 -0.00753538497992978 -0)
(0.0478928371529159 0.0987906531923606 -0.223516262987762)
(0.0521231603720492 0.29310003077732 0.118040502495654)
(-0.0885077605897646 -0.0411714940764054 -0.0801802548120034)
(0.164649193468423 -0.0321844758437185 -0.0838168014986481)
(0 -0 -0.0772989969321389)
(-0 -0 0.1146221306371)
(0.145368376547879 0.0125285714617367 0)
(-0.0542486465511858 -0.0977975646185118 0.413706485245935)
(0.110625412626088 0.189190679654319 0.333617808124508)
(-0 0 0.176455666526329)
(-0 0 0.09412316204871)
(-0 0 -0)
(0.0378971448623057 -0.109615391054301 0.235379053188818)
(0.182409318360153 -0.0293137649065759 -0)
(-0.085351857896929 -0.188144168973835 -0.120434855642589)
(-0 -0 0.047505982501084)
(-0.0788747373104653 -0.233376197272526 -0.283038151700008)
(-0.0752172802934336 -0.0689815616078322 0.108021149352797)
(-0.261954881625203 0.111588340196776 -0.178019686040243)
(0.187166170133632 0.267594154141974 -0.138508574932105)
(0.147733864273604 -0.0178699846147698 -0.25687086013145)
(0 0 0.0118699349056193)
(0.032317254185833 -0.120608085209801 0)
(-0.207773746640669 -0.0847434143994613 -0.275382662521519)
(0 -0 -0.438078355279016)
(0 -0 0.237239106045314)
(-0.100556950844757 0.0898170587166212 -0.356818739774762)
(-0.0519502214596966 0.10685248088851 0.188094007592895)
(-0.110320953659099 0.16703465712236 0.140805877835735)
(-0 -0 0.229749899645553)
(-0.119890465449431 0.217142617151146 0.129894417765386)
(0 0 -0.0559959831682487)
(0.0480281530331174 0.104424434329328 -0)
(0 -0 -0.291769167387513)
(-0.174810347699831 0.236131983056517 -0)
(-0.0693412639681841 0.0847818218768548 0.322282882206315)
(0.0967857974718129 0.0970111307718571 0.201387283123037)
(-0.147650481047635 0.188158032064881 -0.184576589096706)
(0.0336478540213578 -0.175772222066978 0)
(0.0546229472265231 -0.147087284645398 0.241475754990487)
(0.09036877169075 0.0236924740134706 0.357040347892622)
(-0 -0 -0.239904305416532)
(0.26975991871231 -0.191374347089361 -0.0977219675427793)
(0.0220709319427974 -0.124105766250022 -0.194806314257999)
(-0 0 -0)
(0.00150233010402595 -0.161411920534535 0.155397330868793)
(0.155095224862643 -0.16967319602782 -0.212757943112423)
(-0.0334561961595758 -0.114659219529454 0)
(-0.0129398140120585 0.201508282516874 0.220921916236235)
(-0.010086273320352 0.29810854740218 0.385478060715691)
(0.261475956533264 -0.0711305748522474 0.0387118562162301)
(-0.021680729932444 0.433458588344417 -0)
(-0 0 0.513409533446486)
(0.199973932685577 0.0435559605889326 -0)
(-0.0463602084017062 0.200758833770188 0.119258493672981)
(-0.359655515165427 -0.14718475468538 -0.0576883684565177)
(-0.0909044247251119 0.138968607766433 -0.138810854199948)
(0 0 0.173234900502519)
(0.221814496009464 0.0470376953947374 -0.335794169246477)
(0.159936424089354 0.0197734099526536 0.0616673785158014)
(0.276902001130958 0.131607564113086 0)
(-0.0856984407854851 -0.0405501934570491 -0)
(-0 0 0.215444592267373)
(0 -0 0.46003856452036)
(0.0144645047979499 -0.365509867633305 0.0617452012917676)
(0.281702521527978 -0.296317333585114 0)
(-0.158158746021301 -0.0577957107015051 -0)
(-0 -0 0.198764623838279)
(-0 -0 -0.00855512613934536)
(-0 0 -0)
(-0 -0 0.272301675234423)
(-0.0852640085664967 -0.148144249339192 -0)
(-0.0542559568517691 -0.0998856179876861 -0)
(0 -0 -0)
(-0 -0 -0.117145191968668)
(-0.0102519268494598 -0.119965218153287 -0.184483034818951)
(0.185296251928684 -0.124220897473302 0.0421551398304679)
(0.14176716205914 0.0822574062900958 -0.162355042409105)
(0 0 -0.102699956031578)
(-0.0738397844517063 -0.205273145250532 -0)
(0.0887020674469945 -0.296990081504745 -0.0636602394349591)
(0 0 -0)
(-0.0580275596954389 0.0961711445235533 -0.0227030770763993)
(0.121589576722895 -0.21200042189299 0.16892277415964)
(-0.0396257790859695 -0.11189731625049 -0)
(0.0360019198304907 0.255583083063427 -0.00355376426513383)
(-0.0224645106854736 -0.233135182059121 0.0463888536633908)
(-0.121486337876481 0.0637795819846525 -0.0752494398567825)
(0.0714295191172587 0.078671820687895 0)
(0 0 0.107775118359806)
(-0.136642899134534 -0.0158395713011937 0)
(-0.0652267969323313 -0.257950828313986 -0)
(0 0 -0.100880304796054)
(-0.282241551051686 -0.135834678707828 0)
(-0.00756419912094431 -0.247145574712508 0.128025890733521)
(0.0896460778836265 -0.184953604117552 -0)
(-0.11507365746602 -0.0309712117353023 -0)
(-0.040412280752565 -0.15414595445837 -0.226599830639248)
(0.0718982386909635 -0.0722048337600447 -0.504333619997286)
(0.0241438228420429 0.161151315224504 0.147408457655363)
(0.0259468034659972 -0.367700310559565 -0.0644865460657459)
(-0 0 0.508205724627275)
(-0.077699584359362 -0.152045864585183 0.0873314591674062)
(-0.0511062434140986 -0.111424362551638 -0.146884050612475)
(-0.163840169897167 -0.0255517560239496 -0.0354935608282757)
(-0.0968007300497971 -0.17915074768676 0.26802435383697)
(-0 -0 0)
(-0.134161516778154 -0.0707829156825909 -0.0381296121503635)
(0.106449035416363 -0.0582502029333539 -0.146391601045325)
(0 -0 0.0489262218667248)
(0.0938558230053694 -0.106428422162422 0)
(-0 0 0)
(-0.0354348312983054 0.375442171299436 -0)
(-0.274798868612423 -0.162832793002847 0)
(0.0644798833768711 0.0907010226163228 0.201803993307082)
(0 0 0.138130201449198)
(-0.0714720852402147 0.131676180674867 -0.350022461247045)
(0 -0 -0)
(-0 -0 -0.122854092024665)
(0 0 -0.35229718196894)
(-0 -0 -0.00134185984047885)
(0.0286466654937438 -0.121100000945121 -0.128907572362655)
(0 -0 -0.434496242150618)
(-0.0917645754586675 -0.0346836016407376 -0.0548795707657689)
(-0.0289930928889599 0.114722431092198 0.340660435685584)
(0.022790677259305 -0.218535704775281 -0)
(0.0204952905550633 0.263162021231222 -0.0205918912505986)
(0.0385977585351925 -0.170788107399796 0)
(-0 0 0.243646258885007)
(0 -0 0.32567542623252)
(0.0974823904201744 0.228877474796041 -0)
(0 0 -0.0159569533083496)
(-0 0 0.309843075511859)
(0 -0 -0)
(-0 0 0.138036409457725)
(0.0565929174104781 -0.202334527584829 -0)
(0.13598249610843 0.18642591633918 0)
(0.0916752941844066 -0.0105588294869731 0)
(-0.0484045187275689 -0.176293885745046 -0.0296543673543119)
(-0 0 0.226354645057927)
(-0 0 0)
(0 -0 -0)
(0 0 0)
(-0.00701809028342985 0.272779552681312 0)
(0.112820994130708 0.177471716611686 -0.294287711585021)
(-0 -0 -0)
(-0.168954489916337 0.167273576881526 -0.254649301270117)
(-0.0524220830077561 -0.172350929915301 -0)
(0 0 -0.0825688120136729)
(0.0477286456711299 -0.141898273395734 0.0740775661862293)
(0.0260019129780057 -0.23475992367194 0.202691447147375)
(-0.0511909149058389 0.104094736991936 0.159172704386023)
(0 0 0.205674638024485)
(-0.0914812225535081 -0.0039380841152153 -0.144327926068537)
(-0.00104398462289961 0.219391442902127 -0)
(-0.131085723399351 0.0928149207050938 -0.246673014952251)
(-0 0 -0)
(-0 -0 0)
(-0.00812342512202579 -0.123738667356807 -0.358987923605321)
(-0.141511980501559 -0.104255486645334 -0.200967720426804)
(-0.0249445318274581 -0.192176291133076 0.16342562684959)
(0.0610013846635645 0.0853652438786089 0.147601266093747)
(0.159180327564407 -0.42526647189727 -0)
(0.00208654332719907 -0.346008664002379 0.290784031625116)
(-0.192092158619286 -0.016618946819615 -0.157876320130547)
(0.0878069326026411 -0.0386912139294375 0.304336991374453)
(-0 -0 0.138861732851028)
(0.0492187795814465 -0.102726326932472 -0)
(-0.012978333796004 -0.314672522859006 0.155009983059874)
(-0 0 0.18878194105612)
(0.0586029981571844 0.225048185092157 -0.232162910979787)
(-0.184094537679821 -0.0137902412092892 -0.240460653847249)
(0.103710860112247 0.064453671458254 -0.00379823672264489)
(0.0112711459268311 0.124456068154605 -0.0907466327724538)
(0 0 -0.160266543960412)
(-0.132086009915734 -0.24368930235087 0)
(0.0918753967538708 0.198679569811379 -0.521953747310255)
(0 0 -0.00910606328188029)
(0.311894133320289 0.231464640385105 -0.191776476013257)
(0.0895990348109796 0.0084688933022828 -0.147828451519721)
(0.023730822624709 -0.118367238774493 -0.0339429802492661)
(0.283489297056614 0.12898783993884 0.0233693665484488)
(0.00362174136188565 0.127385876863925 -0.155292944603341)
(-0.00872470717365576 -0.288509729958011 0.0725120887526229)
(0.0504484981836251 0.184356338290082 -0)
(-0.0820206581144402 -0.234997046213657 0)
(-0 -0 0)
(0 -0 0.180859744718726)
(-0.0853648184364789 -0.057606425410413 -0.0979515592226497)
(0.0481316704757102 -0.112222086872666 -0)
(-0.0310144912661956 -0.113499479712483 0)
(0.0949001338952948 0.127159609082944 -0)
(0.0166945066084195 -0.20021711685671 -0)
(-0.118739112530957 -0.012339162860387 0)
(0 -0 -0)
(0.0927792082075459 0.213068191947138 -0)
(0.0468763631390173 -0.278203637958716 -0)
(0.0295263888454168 -0.280872578768397 -0)
(0 -0 -0.294847291210839)
(0.0826281026002895 0.0482548924711646 0.0203726121976074)
(-0.172052519403757 -0.261154577106695 -0.0760734085269873)
(0.252026224472367 0.062943486872698 -0)
(-0.164621840638273 0.176805180755459 0.212873265739683)
(0 -0 -0)
(0.114184398788324 0.0875537699107365 0.144521133770454)
(0 -0 0.202320610570516)
(0.122232270612159 0.104795487471291 0.323236173898927)
(-0.0855775528635959 -0.0284991484131704 0.604790189698337)
(-0.292029175054902 -0.0753398691932031 -0.449534604579575)
(0 0 0.25891273285117)
(-0.089103991315115 -0.243826312721753 -0.231782377667685)
(-0.0224549689550006 0.240512590048245 0.287154203643303)
(-0.125130452470524 0.0534349169427561 -0.396120542631681)
(0.138177222602565 -0.140538054973924 -0.168621240175683)
(-0 0 -0.363302042019915)
(0.330022962982014 -0.107689279723722 -0.325203092360756)
(0 -0 0)
(0.162169091474128 0.124990627361212 -0.339105215669632)
(0.142142144984735 -0.0245053281646774 -0.123058088852124)
(-0.17170246613157 -0.00951779027830794 -0)
(0.0808875729747296 -0.191131375750164 0)
(0.0700107344001137 -0.177814335151299 0)
(-0.0673009470392196 -0.0873788919799385 -0.370584257153409)
(0.10666032274574 0.149656419577093 0.13152326384481)
(0.115989298675656 0.0193725675841246 -0.238931070151401)
(0.0956499846353969 -0.0851078158664206 0.22634418818716)
(-0 -0 -0.222712795719554)
(0 0 0.18972259672437)
(-0.135847246228059 -0.129202506598264 0)
(-0.163154253833762 0.0556605816366887 -0.262578445780107)
(0 -0 0.0170835502072446)
(0.18218548834642 -0.108552070317656 -0)
(-0.11133380682417 0.158572381934501 -0.220734734324008)
(0 -0 0.534987698616925)
(-0.0523177556485256 0.43269379813398 0)
(0.023422388456521 -0.280652995179226 0.161791501058276)
(-0.114862443279528 -0.0529276573850024 -0.180292372236812)
(-0.0172992496143009 0.162945156196561 -0)
(-0 0 0)
(0 0 -0)
(-0.0947863019166231 0.086326291357136 0.00686091484021527)
(0.284702445088322 -0.143190540362556 0.482276659067852)
(0.154842817443478 -0.306879996754737 0.397358889867238)
(0.00417975249512666 0.280545579843378 0)
(0.125270158275116 -0.213091009392973 0.159768498138474)
(0 -0 0)
(-0.135854376040434 -0.0625034877437626 0)
(-0 -0 0)
(0.257954213870711 -0.080401943592994 -0.118512960046744)
(-0.187097452184314 0.0472759553032805 0.386493757141529)
(0.0969059040748379 -0.126570203118631 -0.053299994147726)
(-0 -0 0.00777651056043265)
(0.10305267712209 0.113695942788314 0.135121687236999)
(0 -0 -0.0221419018282125)
(0.157292607409224 -0.0878396160398556 -0.0365284956653617)
(-0.180085015392863 -0.0370666700728566 0.344090621701095)
(-0.0669315273684403 0.134354131309998 0.272948163499553)
(-0.106152401983262 -0.167549710488975 0)
(-0.0999837533673443 0.248702167202924 0.124923594864157)
(-0 0 -0)
(-0.0542176858488002 0.108058948351387 0)
(0.0639196579676897 -0.18415982011485 -0.0926096421567183)
(0 -0 0.367474023924494)
(0.328768840848647 0.157777547585895 0.0413032374762123)
(0.138235025749182 0.103535660497147 0.361984196409352)
(0.00266261439648261 -0.1832963402035 0.250143018504649)
(0.252090863741614 0.0359800109611735 0)
(0 0 -0.113740723698088)
(-0.0238952236846552 -0.391305733733255 0)
(0 0 0)
(0 0 0.198342341635611)
(-0.19678981829414 -0.00827969908597161 -0)
(0.0143206051682037 -0.296238144694994 -0.0951248581127512)
(0 -0 -0.0789204768869458)
(-0 0 -0.245551579554837)
(0 -0 -0)
(-0.0602925140771497 0.085858411024149 -0.113314803616135)
(-0.02010135639603 -0.218079139093802 -0)
(-0.0545000271391045 -0.107647565876935 0.237938033597198)
(0.0866105729304774 -0.0106220483576486 -0)
(0 -0 -0.0948748300094884)
(0.313912877524306 0.0499018471278954 -0.0391941233457469)
(-0.00107210098438386 0.160093441334839 0)
(0.143920745135806 0.0358855913146405 -0.151460752179858)
(-0.00844467162049392 0.234241490361305 0)
(-0.0196040219773998 0.164846563392998 0.409887584002728)
(0.032791467332463 -0.113599562567527 -0.156026481197705)
(-0.219383262487527 0.339685384865556 0.419609526139853)
(-0 0 0.00121680488368869)
(-0.129717804024606 -0.133516594441947 0.05800555816939)
(-0.0640986862385738 0.0833750045440118 -0.0967862978413948)
(0.0233806293912182 -0.25354535595808 -0.101339469654937)
(0.107708158095743 -0.0457439992650675 -0)
(-0.117270324055647 -0.157163906595698 0.123470823078201)
(-0.167398263708179 0.27291728376803 -0.0423102564910952)
(0.0933522840547105 -0.0999833570356027 -0)
(-0 -0 0.00317350846313671)
(0 -0 -0)
(0.134773881823362 0.0615747677243999 -0.0515298664169002)
(-0.124358815192162 -0.0552576508286997 -0.110886782070816)
(0.109077834870024 0.125116829924167 -0)
(-0.132729569500792 0.0809977028738547 -0.0523537923595459)
(0.140472611605802 -0.0590144496481716 0.2278300101308)
(-0.170526488184569 0.128721463222832 0)
(-0 0 0.162371264595435)
(0.161605475513422 0.109769697885401 -0.494742256349295)
(0.134929016875035 -0.239224785126702 0)
(0.271136553633159 -0.0597410303207781 0)
(0.122396982278057 -0.117155950926806 0.193504380840429)
(-0.0915747255527416 0.034928227491692 -0.155261158447218)
(-0.12250847409923 -0.269071464891207 0.171515763363826)
(-0 0 0.144934010362878)
(-0.122418904410377 -0.163509175826072 0.129076575355381)
(-0.198985917494553 0.010283301208652 -0.124378510023241)
(0 -0 0.18828274165645)
(-0.161201265677049 0.000866708573090805 -0)
(0.0297911818501979 0.119632603489571 0.161308574073568)
(0.0684171199495526 -0.228142302362565 -0.451519596269855)
(0.199683187296649 -0.0140240680734492 -0.15078477930569)
(-0.218603322096903 0.111411503762693 0)
(-0.12924137286689 -0.270573910989777 -0.0752995332874624)
(-0.250490805135978 -0.0153080466638996 0)
(-0.0573238698291621 0.168763878989164 -0.290454512730207)
(0.13806537208619 0.054207416721344 -0.00560567415855013)
(-0.19597095785577 -0.131788362609669 0)
(0.244966131502533 -0.312939330208731 0.151718806141841)
(0.21640623977265 -0.219259117030615 0.150226499231449)
(-0 -0 -0.131765975127784)
(-0.080890319493495 -0.0697037724862565 0.32529338991516)
(-0.0766292023944756 -0.348743477532723 0.322464598953538)
(-0.0156953827286994 -0.203101629982415 -0)
(0 0 -0.0241647013793935)
(-0.2525921229096 -0.111586372418236 -0.172964355591509)
(0.0926660312236754 0.00820620662899372 0.420718687260906)
(-0 -0 -0)
(-0 0 0)
(-0.0896487492472453 -0.021843251159276 0.050709509273984)
(-0.0534438291702176 -0.213547847691904 0.042210613772134)
(-0.140690597408459 0.181703441619733 -0.0954723222544091)
(-0.259297002317294 0.0659854601748496 0.0968808785226554)
(-0 -0 -0.0391147974759041)
(-0 -0 0.114567618894276)
(-0.0786018053278159 -0.0722943540229671 -0)
(0 -0 -0.338847279239058)
(0 -0 0)
(0.035663390326902 0.157640119957991 -0.0061082708248732)
(0 0 0.391064841375283)
(0.160345762107109 -0.0480961309995247 -0)
(0.058954845075879 0.1346550240104 -0.238377048500688)
(-0.137596729383991 -0.0922455833184208 0)
(-0.0238638278258729 0.236041174634186 0.208308176787805)
(-0.0896308719477338 0.0230454801679412 0.177050952247411)
(0.154291964252382 0.361663119879959 0)
(-0.298564468419363 -0.00236791425253272 0.236027656378606)
(0.0097259303020147 -0.155250852489216 -0.193579018976828)
(-0 0 0.178405747551801)
(-0.0595523360951774 0.0937200459708631 -0.0217825009392176)
(-0 -0 0)
(0.0590515770404255 0.0913128477714728 -0)
(-0.0150373276918429 -0.119359383309728 0)
(-0 -0 -0.139679220359321)
(-0 -0 -0)
(-0.0901930480390537 0.0303194074494513 -0.0786488348419092)
(-0 -0 0)
(-0.0826887011979026 -0.0523921381135771 -0.360529903413658)
(-0 0 -0.0356532236907625)
(-0.0874930761475256 -0.111331066313871 0)
(-0.0172003346691404 -0.153112796664009 -0.197801466153302)
(0.0878037783491053 0.097442760506319 -0)
(-0.109865207098201 0.186527672981206 0.297561139311343)
(-0.187566898626935 -0.165339765687315 0)
(-0.244322908080461 -0.124868565853536 -0.190317173026229)
(-0 -0 0.0333798362717952)
(0.157109700840047 -0.124777301126398 0.354573401175645)
(0.329647064822768 0.0359588394262313 0.298631430312727)
(0.0883968173888071 -0.0324858604557637 -0)
(-0 0 0)
(-0.0829906517610493 -0.0656444567271342 -0.209159122807936)
(-0 0 -0.143338691896273)
(-0.0557764711749465 0.18256493769134 0.0444702300965843)
(-0.196001829781383 -0.199358647214652 -0.238657221685688)
(-0 -0 -0)
(0.136133375661711 -0.148822696313417 -0.0143552573185343)
(-0.110586719276985 0.15056649315506 0.104306298133783)
(-0.0391497517775583 -0.372484381970828 -0)
(0 0 -0.261353831030462)
(-0.070283311298976 0.0749346864969158 0.029641408157635)
(-0.310280888302424 -0.124610797680904 -0)
(-0 0 0.0870510461687245)
(-0 -0 -0)
(-0.0463511499722373 -0.247229343661829 0)
(0.0603451947379322 0.136953154146177 -0.203606422457683)
(-0 0 -0)
(-0.308679787924306 0.00217993659395307 -0.171223899277642)
(-0 0 0.250230498292951)
(-0 -0 -0)
(0.0881482495440599 -0.131811706981166 0.0998915857098943)
(-0.0442210922990257 0.1770579207531 0.0725505832375594)
(0.143931085758227 -0.111115713297077 -0.186024836138362)
(-0.0953258611325948 0.00112784529921888 -0.135571082372619)
(-0.187163830516166 -0.140821235862176 0.122443538464479)
(0.193680482935959 0.165493420793672 0.148467361472527)
(0 -0 0.141939520714602)
(-0 -0 -0.345917758927174)
(-0.0609376725437841 0.10066634449812 0)
(-0 -0 0.299108247712117)
(0.0552589414089282 0.307399814781176 0.109914315780534)
(0 -0 0.231875002228151)
(-0.272845904614505 -0.151953418063847 -0.144224198107211)
(-0 0 0.181834279988023)
(-0.092727374437311 -0.197995266560113 0.375606180816639)
(0.153335615811574 -0.0377890657650292 0.0981274002306007)