/*--------------------------------*- C++ -*----------------------------------*\
| =========                 |                                                 |
| \\      /  F ield         | OpenFOAM: The Open Source CFD Toolbox           |
|  \\    /   O peration     | Version:  2.4.0-MNF                             |
|   \\  /    A nd           | Web:      www.OpenFOAM.org                      |
|    \\/     M anipulation  |                                                 |
\*---------------------------------------------------------------------------*/
FoamFile
{
    version     2.0;
    format      ascii;
    class       tensorField;
    location    "0/lagrangian/polyMoleculeCloud";
    object      Q;
}
// * * * * * * * * * * * * * * * * * * * * * * * * * * * * * * * * * * * * * //


4298
(
(0.644423008619962 -0.764644576021048 0.00613663774300152 -0.757457590655152 -0.639424461548776 -0.131887665579274 0.104771104413808 0.0803432034129219 -0.991245673556894)
(0.775422290494046 0.384080732919623 -0.501200820036134 0.151040924083636 -0.883517165337277 -0.443378007806369 -0.613112477981756 0.268103355358168 -0.743110812859538)
(-0.755320514753804 -0.332252281003821 0.564888787072116 0.377065058854149 -0.925319625376629 -0.0400690938776022 0.536015728671619 0.182734815130047 0.824193621642403)
(-0.299450985773948 -0.354156177710323 -0.885947238219424 0.768747011004729 0.460422827823319 -0.443890586395424 0.565116926122644 -0.813992764960963 0.134382433379148)
(-0.989870287287436 0.0839703863699576 0.114480516064387 0.0985974126314087 -0.173599071274716 0.979868313945781 0.102153632181534 0.981230012110023 0.163561299721798)
(0.0305121510515851 0.883067933862715 -0.468252103915873 0.902311528320332 0.17720281136226 0.392979731672689 0.430003388938311 -0.434499928456551 -0.791395538067293)
(-0.400507988259672 0.915723874068946 0.0322976438823688 -0.813561697162526 -0.339166911838309 -0.47231681192193 -0.421557488665807 -0.215442782135365 0.880836926664381)
(0.721407188109856 0.390430996708477 -0.571957433514643 -0.534672739721032 0.83891509269026 -0.101717887589638 0.440109907117116 0.3791900632476 0.813952188762734)
(-0.494686884801628 0.358323085522004 -0.791763507865355 0.499147599194867 -0.628648512739554 -0.596366264679976 -0.711432751722368 -0.690221423756418 0.132128066527901)
(-0.809227436301587 -0.370300402581001 0.456101488909113 0.587488721235074 -0.506324923736204 0.631262286236953 -0.00282112713987112 0.778789241998036 0.62727932995579)
(-0.947315807713264 -0.315712759754697 0.054020494116952 -0.303537052150171 0.938722603152358 0.163294618107411 -0.102264453396822 0.138294351507696 -0.985097281446109)
(-0.973209674831238 0.178489207398152 0.144929402321458 -0.173700919940795 -0.157798503257736 -0.97207387722402 -0.150635053113799 -0.971206072474837 0.184574769568879)
(0.954883760571098 -0.178852460630361 -0.237083953746482 0.231792613437277 -0.0502331277661968 0.971467352632471 -0.185658794980242 -0.982592708196682 -0.00651011867743533)
(-0.282921143951405 -0.913996482463702 -0.290802435253229 0.739601451939475 -0.400936307581904 0.540592054650834 -0.610692491024942 -0.0621329808279687 0.789426484290451)
(-0.0141276683281328 0.938364107143745 0.345359539338256 0.978138815148753 -0.0586972612299239 0.199497092268281 0.207472569962882 0.340627999360634 -0.917021100501274)
(-0.99108479204767 -0.023256294107446 0.131187193567877 -0.109521798921321 0.702905871521426 -0.702800335331267 -0.0758677173300028 -0.710902581627815 -0.69918639067279)
(-0.547798153164497 0.673581581161598 0.496190524808171 0.834513959611485 0.397981835346942 0.381047123001132 0.0591915078632621 0.622814829828033 -0.780126946812602)
(-0.575361866014209 0.814944481508525 0.0694565705707456 -0.53310943204733 -0.438071047417392 0.723801140422425 0.620284657716778 0.379419621887734 0.686503964975985)
(0.854311928693789 -0.0886994542392181 0.512136246822233 -0.396181559607323 -0.748929439772782 0.531173103675946 0.336439148017302 -0.656686455669136 -0.674960442264656)
(-0.435844551462609 0.843806337446612 -0.313098054681422 -0.722994747198261 -0.121065202112293 0.68016307776976 0.536020636248344 0.522813620444651 0.662833158338866)
(-0.861805519017794 0.467485836835389 0.196845725756966 -0.372879737514056 -0.846967656156285 0.378954470585291 0.343877810772837 0.253185271655848 0.90423739663577)
(0.554238634457629 -0.831107879261797 -0.0455985647087824 -0.378340845772118 -0.202749832212583 -0.903189188353253 0.741402549560615 0.517834141947717 -0.426813848109795)
(-0.306241639786166 0.606359785231756 0.733855482308866 -0.87038133520736 0.133873161503995 -0.473829408069589 -0.385554651617294 -0.783840409447372 0.486766702983723)
(0.874859680588788 -0.204500079027591 0.439090260604573 0.483116758537847 0.433733114848013 -0.760574639798175 -0.0349104124863392 0.877527949846585 0.478253029617256)
(0.994361016471226 -0.0276273242892041 -0.102386033593105 0.0101362778875447 0.985809193896887 -0.167563388301133 0.105562421310312 0.165580687826175 0.980530270326274)
(0.566173048757486 -0.257708297047056 0.782965205161609 0.43071505496616 0.902372354221066 -0.0144456139720162 -0.702803400878333 0.345413618681483 0.621897750231669)
(-0.398938820095181 0.365347525441535 0.841052319106732 -0.899830692551347 0.020568440736074 -0.435754132497042 -0.176500828790202 -0.930643930243696 0.320545367361531)
(0.113537854912351 -0.971628623227756 0.207477647052487 0.697019121871123 -0.0709169449534615 -0.713537056265809 0.708006708476629 0.225629354125304 0.669191971940105)
(-0.519527226467575 0.317342297768088 -0.793338091236126 -0.21789112240643 0.848574143984077 0.482125897394195 0.826205131753232 0.423338857428611 -0.37171130202842)
(-0.227590318835433 0.377365825359985 -0.897662342210457 0.820939446521521 0.570143384326753 0.0315427718086729 0.523699409888272 -0.729747596884576 -0.439553606428001)
(0.108477500504205 0.651844803577367 0.750553784837266 0.697627216971462 0.487955454627512 -0.524610084195787 -0.708201170589976 0.580515138776279 -0.401812488141602)
(0.474144994575468 -0.34627840867193 -0.809492302499947 -0.400321047049615 0.734089138749349 -0.548503596760621 0.784174459803512 0.584127041026072 0.209442155579998)
(-0.281623069856779 0.947177425894732 -0.153438490607388 0.958426055360695 0.285332144500752 0.00225027117039867 0.0459123396287079 -0.14642571901832 -0.988155638490104)
(-0.55923111958069 -0.514459141981982 -0.650071031598617 -0.77359090906399 0.0419451490207244 0.632295587432949 -0.298022919095289 0.856488409556599 -0.421437947969961)
(-0.0937992338665428 0.994817644648829 -0.0392371969106638 0.199876045060817 -0.0197919419104998 -0.979621276640242 -0.975321111397111 -0.0997303009659952 -0.19698374738119)
(0.0330063582393547 0.863755495795714 0.502829020441817 0.866442123454625 -0.275503948205813 0.416383982912946 0.498185334006547 0.421928925301063 -0.757487527933678)
(0.145301305635494 -0.796532037505327 0.586876685350707 -0.38663234801181 -0.591718124967465 -0.707379027152955 0.910715629629521 -0.124122414626043 -0.393942468053275)
(0.870744894166488 -0.213570753910963 -0.442934377032191 0.26841689103336 -0.548292424286613 0.792040270490014 -0.412014201079255 -0.808556089918202 -0.420096831177302)
(-0.844749617726332 0.217507483557967 -0.488966847493259 -0.52592080142015 -0.506466102756746 0.683300371280435 -0.0990221893557311 0.834375563732948 0.542228756762793)
(-0.561346263428535 0.818605751897875 -0.121552439278427 -0.776317444208034 -0.571753850175596 -0.265384175541212 -0.286743087716388 -0.0546091363152413 0.956449812524303)
(-0.0839115100955704 -0.987550275472249 -0.13305379321224 -0.953531238629299 0.0408011576561435 0.298518747304072 -0.289373522340167 0.151920107124117 -0.945083724132334)
(0.233698018385423 -0.085061219460864 -0.968581346685221 0.560439087249477 -0.802250231362715 0.205675948427234 -0.79453965645882 -0.590896907440122 -0.13981265712374)
(-0.918916681684077 -0.325016036486368 0.223509973266107 -0.213391946761486 0.886169152742567 0.411300510314374 -0.331746905305939 0.33025567179719 -0.883671422003518)
(0.0131179954737899 -0.722516770470224 -0.691228930661924 -0.399331452181925 -0.637552953775257 0.658832772735783 -0.916712773715423 0.267386887340653 -0.296887087939595)
(-0.788965770715515 0.61418293297118 -0.0176730723472845 -0.614073602138393 -0.789162022410195 -0.0117010060349906 -0.0211334757210688 0.00162087395260617 0.999775349251809)
(-0.520766042318 -0.227253759737945 0.822896383424679 0.802343619374715 -0.45956825816136 0.380843448859522 0.291628951952871 0.858575998252631 0.421663147082323)
(-0.750515982289202 -0.658117760914335 -0.060056415956796 0.642864713560631 -0.748125396692385 0.164418219435891 -0.153136280440271 0.0847903508246256 0.984560752833443)
(-0.216552218030839 -0.586462542529813 -0.780491398463424 -0.72599352447873 -0.437767479954601 0.530370658982141 -0.652716277781454 0.681484643776854 -0.330968489460037)
(0.193777342206406 0.91502799493054 -0.353799533833522 -0.364105553101712 -0.267798495951337 -0.892026407550078 -0.910976118154542 0.301674881386565 0.281273493405412)
(-0.756934959343074 -0.642023147388186 0.12188414803438 0.0122310865953629 -0.200398528030306 -0.97963811200054 0.653375747824325 -0.740031558908845 0.159541292378964)
(-0.787368815056426 -0.0516993335767524 0.614310611974398 -0.611927750339428 0.186445711405407 -0.768623721376759 -0.0747982449069959 -0.98110405951981 -0.178437795751298)
(-0.376883118228369 -0.355463333050701 0.855339075484657 0.729724784659828 -0.682694259866069 0.0378191247795123 0.570491764925339 0.638415512344748 0.51668634561982)
(-0.960183298947675 -0.264215136598355 -0.0907655992888922 -0.106897605512793 0.0473022373237763 0.993144199137163 -0.258110314318492 0.963303098685184 -0.0736627837237491)
(-0.724057145398685 -0.674054565464244 0.146258992796739 0.688222927995903 -0.691978665856353 0.217978731486372 -0.0457214564275117 0.258487850345952 0.96493190414955)
(0.0441404891398164 -0.399817224692476 0.915531432588583 -0.997768159790557 0.0283173584241501 0.0604717001583653 -0.0501030590549398 -0.91615736314843 -0.39767495448199)
(-0.592186795713952 -0.77399992876169 0.224140378466131 0.793115363488442 -0.510699692646577 0.331894326750682 -0.142417762869097 0.374312615613728 0.916300849400333)
(0.995836916356061 0.0853734957649679 -0.0319406049304069 -0.0854226624703564 0.996344788696421 -0.000175425080232358 0.0318088786178778 0.00290314628501925 0.999489753315521)
(0.0584676214423089 0.998263115926888 0.00723108725019201 -0.998256593453334 0.0584055331799185 0.0085186454858627 0.00808151407987584 -0.00771654546480917 0.999937570079386)
(0.899080166456708 0.433634209277791 0.0601350715323722 0.436224102600684 -0.898969969201214 -0.0395161585252831 0.0369240652475625 0.0617605619986783 -0.997407763348171)
(-0.10058816064459 0.920997346183779 -0.376358752071177 0.815641158813437 -0.14028648265543 -0.56129243967262 -0.569746892916154 -0.363433062759298 -0.737092183451829)
(-0.712271786919934 0.673071951104871 0.199105625721039 -0.685970990086004 -0.727606605915549 0.00569454023446558 0.148703403855834 -0.132524622859064 0.979961490068743)
(0.420991997918197 -0.905313681364253 0.056328287951517 0.904052276454417 0.413727608037834 -0.107326361090273 0.0738594552270166 0.0961072561360327 0.992626906844445)
(0.313828602027113 0.514748390014699 0.797838143690174 0.884768520654623 -0.463445779296418 -0.0490170838684354 0.344523255250408 0.721285037020463 -0.600875712574615)
(0.0836392668443606 0.523856720221903 0.847690161391583 0.839693045649184 0.421009176486151 -0.343026037499853 -0.536581831718272 0.74048997967076 -0.404665946030873)
(0.690166573643277 -0.72148434937154 0.055950283622377 -0.066313885069202 0.0139352363129956 0.997701497360774 -0.720605696114406 -0.692290504629975 -0.0382267959244027)
(-0.0635137563431167 -0.997980393970481 -0.00106583568621805 -0.997697362215285 0.0635211303347809 -0.0237705580425306 0.0237902539677226 -0.000446375978958532 -0.999716872201643)
(0.0606696334707121 0.198864817645233 -0.978147217895884 -0.973974186998934 0.226199622426345 -0.0144226860863249 0.218388366526918 0.953565160393933 0.207412647272527)
(0.0812261080972839 -0.996608687427569 0.0131697952628452 -0.996585903218655 -0.0810139442975149 0.0159147207081056 -0.0147938118558476 -0.0144175231318021 -0.99978661631246)
(-0.637204338426351 -0.544536768909183 0.545390079114557 0.270058571389424 -0.820552920085245 -0.503747231613913 0.721830311852959 -0.173702655839007 0.669916702467356)
(-0.399270501589447 0.869021733024803 -0.292205910431462 0.506847067343161 0.474797966087517 0.719494921264073 0.763995495331058 0.139169389341641 -0.630033938914505)
(0.118028187579335 0.968768125431949 0.218077202118435 0.77046201294363 -0.227888361277968 0.595361387230388 0.626464391284602 0.0977507746317634 -0.77329629024799)
(0.606067756624769 -0.793873299599455 -0.0494677527576743 -0.794254778880237 -0.600658763574518 -0.0914789372863394 0.0429094465791233 0.0947324333277984 -0.994577571368904)
(-0.0527347931550337 -0.914033017719205 -0.402197319869263 0.963876422640668 -0.151887062846794 0.218797993631576 -0.261077159989771 -0.376130246934352 0.889024608136793)
(-0.00561474063102091 -0.947305965518663 -0.320280942892956 -0.997969126841329 0.0256311989646949 -0.0583152082323958 0.063451529210901 0.319303068153732 -0.945526019794491)
(0.669843819314541 0.0304804844503353 0.74187613372704 -0.742499320471431 0.0248007097238554 0.669387543876234 0.00200420197874722 -0.999227634157936 0.0392443411151526)
(0.13460045505118 0.990852278403533 0.00972007626218533 -0.227047426670477 0.040388227229662 -0.973045865899218 -0.964537289866146 0.128765498033334 0.230406733785925)
(-0.642910214155681 0.757657341488367 0.112346826493124 -0.0679493621322423 0.0896817949424588 -0.993649867831582 -0.762921582287536 -0.646461544521156 -0.00617500892337709)
(-0.991537530767461 0.0874891534773828 -0.0959112772481822 -0.101086160359174 -0.0567632872325226 0.993257024846237 0.0814549769099843 0.994546920585635 0.0651268722588827)
(0.401197177006245 0.695723612640303 -0.595826719757469 0.905470869472228 -0.202917257619408 0.372756074527868 0.138431678814593 -0.689052422806092 -0.71136729537253)
(0.54446381749585 -0.567514923702884 -0.617645499305512 0.835490135673862 0.301736367313893 0.459250909451345 -0.0742656355895396 -0.766082225361433 0.638437655026516)
(-0.470557515400814 -0.199143254569225 0.859603157776535 -0.0223700449039443 0.9765781263387 0.213997065979393 -0.88208571340364 0.0814685664312938 -0.463991020271752)
(0.487006295933887 0.826245986422111 -0.283094397051774 0.807034039710472 -0.549639485099787 -0.21585294801748 -0.333947490586995 -0.123345070191691 -0.934486525954257)
(0.399260827918436 0.317072311495764 0.860265040887178 -0.64200152647813 0.766548053898604 0.0154311718289263 -0.654541695608183 -0.558452531865508 0.509613518623052)
(-0.857117567287631 0.510048418171171 -0.0721116285214733 -0.469957923121405 -0.716949229065013 0.514901304560882 0.210924219430457 0.475220384731305 0.854211074380029)
(-0.966123284625782 -0.212860355785086 0.145932408460003 -0.0284439653906481 -0.474184794330535 -0.879965750275864 0.256508751774177 -0.854306297390318 0.452066378425225)
(-0.0698992877080061 0.0809050702054743 0.994267800541162 0.997089762932789 0.0360723503393693 0.0671624165410141 -0.0304317964068549 0.996068850610258 -0.0831910488659125)
(-0.26308267840427 0.414286434656107 -0.871294585306007 0.296011696436711 -0.82488720215015 -0.481599604756439 -0.918239935907982 -0.384613902230314 0.0943799041897947)
(-0.626813434682908 0.17714001863905 0.758766322326955 -0.0842483285311563 0.952696868597293 -0.292011807474663 -0.774601276296859 -0.246961718412936 -0.582239445930802)
(0.455064766669974 0.482319136470142 0.748521415011153 -0.166711549734906 0.871886170460908 -0.460458211941103 -0.874713277206073 0.0847511436719772 0.477172847431309)
(-0.330217714012606 -0.922400138358428 -0.200335334149124 0.648094152733851 -0.0672603398429405 -0.758584218051235 0.68624356502956 -0.380334105018949 0.62001269181764)
(-0.754874949626031 0.32335958376059 0.570615798955196 0.0667658135778384 -0.827609426765573 0.557319444184436 0.652461597769851 0.458804115411946 0.603152258651723)
(-0.851734268742042 -0.466202409122522 -0.239173679945797 -0.293038344001236 0.0454198765764362 0.955021237332864 -0.434369962584283 0.883511374312826 -0.175300847300835)
(-0.592341182825288 0.430327497913829 -0.681138875464 0.499153731004818 0.859628891905979 0.109012481049045 0.632437724960417 -0.275420429052971 -0.723993170760035)
(-0.00897663157259707 -0.981836822305909 0.189514839656015 -0.89526070034252 -0.0765355187012487 -0.438919802241083 0.44545224043418 -0.173605209430379 -0.878312890006063)
(-0.11764235047358 -0.826931349947641 0.549858909038332 -0.974168213153866 -0.0113793312682754 -0.225536700562216 0.19276039493541 -0.562187738476801 -0.80423154430219)
(-0.861629549825384 -0.0385693678832537 0.506070076895278 0.465935472779162 -0.455472230203136 0.758583668898718 0.201242773966582 0.889414105675679 0.410419169327369)
(0.124419808152044 -0.427782774078192 0.895277392511045 -0.580814387833345 0.700150008117346 0.415264509703222 -0.804471477570949 -0.571657121301963 -0.161349860364263)
(0.312609501457891 -0.755056953899075 0.57633696390818 -0.904628848317302 -0.421697746788773 -0.0617871924057431 0.289692848359018 -0.502055780488505 -0.814873025009245)
(0.688790690561887 -0.720548815459959 -0.0798548003223932 0.724823331598494 0.682329220706357 0.0951733814714733 -0.0140898036089485 -0.123435161560655 0.992252608121922)
(-0.0744797112134871 -0.711909502334556 0.698310556345327 -0.475517501325562 0.640870847716785 0.602633937378127 -0.876547704663386 -0.287174889279223 -0.386257303383141)
(0.632390024387624 0.129639065750549 0.763725454392051 0.29860558093467 0.868911780978566 -0.394749317809829 -0.714784977520995 0.477688213700089 0.510780193823458)
(0.529852394835097 -0.814840448438392 -0.23514141123212 0.834413066120314 0.451277301271294 0.316391580869331 -0.151694676159743 -0.363845902747328 0.919023875793645)
(0.485920853317467 0.185911488496611 -0.854001078896391 0.322376428117367 -0.946342125377799 -0.0225836296843192 -0.812375752288012 -0.264335960815787 -0.519780854701365)
(-0.234558256405362 0.283073850532516 0.929973988612999 -0.0618009696579188 -0.959069988569949 0.276342897816785 0.970135590781731 0.00734521402898459 0.242452022737388)
(-0.0433479670882462 0.939898241255338 -0.338691968954741 0.525853683738298 0.309715238956097 0.792183295744886 0.849469750519804 -0.14376288409562 -0.507674478488264)
(0.596551269882266 0.190824285932936 -0.779559282094724 -0.696132643675442 0.606412934259066 -0.384269040611848 0.399406966403062 0.771912848099768 0.49459542064925)
(-0.605399061442793 0.0485112945953857 0.794442339443754 -0.113367652747676 0.982708132596574 -0.146398433868117 -0.787806925404104 -0.178693537726564 -0.589430969546135)
(-0.0363777150384619 -0.30681593885605 -0.951073415416739 -0.98713181876382 0.159325710046011 -0.0136414992712206 0.15571587662346 0.938338583765058 -0.308663681027056)
(-0.877300284527906 0.447900503430107 -0.172422010759393 0.218134585724567 0.0521091441061575 -0.974526520732656 -0.427506155836413 -0.892563597805546 -0.143417957712389)
(-0.563663319571105 0.781081200766449 -0.268692798525239 0.465850253954414 0.0319833471604816 -0.884285364797485 -0.682104979501462 -0.623609832598601 -0.38189471536754)
(-0.665120202550834 0.739347691472128 0.104786007050428 0.51674056835677 0.557008905093791 -0.650169412276938 -0.539067993089053 -0.378293630346919 -0.752528822083174)
(0.54356459069852 -0.825237803857664 0.153362651329878 0.839084876694978 0.529494899547344 -0.124786702236745 0.0217739624442632 0.19651391410668 0.980259239243348)
(-0.599851415104301 -0.613653401697509 0.513427485028259 -0.302850180756007 -0.419813007596586 -0.855592663987229 0.740580885395662 -0.668720076891508 0.0659803830603754)
(0.172256778033765 0.758946506730044 -0.627955255049028 0.664968886225392 0.38072021032662 0.642548443155079 0.726735153115348 -0.52825403109784 -0.439094176521728)
(-0.29079927720011 0.717674438813801 0.632755229336897 0.00300788372127659 0.662017910770729 -0.749481980073089 -0.956779354404877 -0.216045563925887 -0.19467301120734)
(0.307081901677396 0.0896631047844895 0.947449857935817 0.0151845737464079 -0.995886736495107 0.089325454341215 0.951561944584972 -0.0130436081484476 -0.307180288925145)
(-0.796656815090438 0.329189711960364 0.506924109220909 -0.20543111454749 -0.936217703830189 0.285121848006611 0.568450504569866 0.123006278597402 0.813470023590226)
(0.107622651662693 -0.41463478850052 -0.903601326368117 -0.775262626784865 0.533993640391502 -0.337370199531705 0.622402783059107 0.736837013312008 -0.263981043739351)
(-0.575736116393221 0.72739415648639 -0.373397463020176 0.653356423314794 0.683850079328517 0.324768306821464 0.491582453301327 -0.0569807872166884 -0.868964833289826)
(0.800357060500419 0.506314221759931 0.321052152384569 -0.108163434648712 0.648671773885411 -0.753342950567236 -0.589685718931807 0.568217245961429 0.573933719413564)
(-0.227214171566374 0.0899381134465109 -0.969682863615259 0.805397793993847 0.577111325724536 -0.135192126805937 0.547456038115619 -0.811698006323873 -0.203563829941861)
(-0.173155611042491 -0.262177308269802 -0.949357779445085 0.0514834416240414 -0.96500988715906 0.257109651557077 -0.983547959991299 -0.00435622699810301 0.180594666818529)
(0.26722451414256 0.501826902996012 -0.822654738314139 -0.890421980349085 -0.197809014111713 -0.409902782190321 -0.368428766456267 0.842045933049726 0.393978287069136)
(-0.543249713299717 0.0795196464413747 0.835796850215179 0.147251552337238 -0.971048953460301 0.188098140123521 0.826557154305768 0.225256644327072 0.515812674187498)
(-0.982372122265888 -0.186801874391787 0.00707623618387889 -0.186868037780206 0.982331459014024 -0.0102587078891512 -0.00503486355230631 -0.0114001910113221 -0.999922339881411)
(-0.508028661204439 -0.860982960299215 0.0248036583838973 0.836507072932216 -0.500042049308067 -0.224084506064486 0.20533581355721 -0.0930929159398746 0.974254028820312)
(-0.345373556102543 0.655922751679951 0.671179894345536 -0.582336031425664 0.411055959688893 -0.701368479836135 -0.735936038829796 -0.633086362065117 0.239999593580207)
(0.183561430134522 0.0750430620375198 0.980139653420369 0.500288634845313 0.851160388107286 -0.158862442262692 -0.846177571914773 0.519513746263838 0.118697027053465)
(0.797352137702381 -0.397951082472685 -0.453722937992186 0.0603640285720208 -0.695443839583042 0.716040536590319 -0.600487928734624 -0.598324996924593 -0.530491701630843)
(0.275095309816895 0.674390344466219 0.685215465242489 -0.63491154345834 0.662626058888929 -0.397258150406854 -0.721948684118266 -0.325767354675173 0.610463535461247)
(-0.52225411492782 -0.752982822136461 0.400334246609467 0.682420916739063 -0.087481845490032 0.725705600851113 -0.511421872662849 0.652199199843935 0.55953898155978)
(0.976044844501689 0.0616917662697095 0.208639851169897 0.00365902065253219 0.954167471220714 -0.299250811915579 -0.217538670331364 0.292845629707517 0.931084509629319)
(0.959208850832371 0.240236547870764 -0.149012689231424 -0.055120589545805 0.67592663571249 0.734904690243924 0.2772726115089 -0.696713416119952 0.661596791637853)
(0.320476188232817 -0.928338899727572 -0.18836639835269 -0.947233240161173 -0.315463901432564 -0.0568481805048363 -0.0066484215817661 0.19664540204527 -0.980452132612768)
(-0.792190475667561 0.362548163159313 0.490910459912407 0.603236538246741 0.587002313779952 0.539938850742444 -0.0924117372723396 0.723869541427729 -0.683719941063238)
(0.0186550508365947 0.172113103668319 -0.984900537426974 -0.116857335067389 0.97869592410086 0.168815435873949 0.992973490239912 0.111943591571925 0.0383703008425266)
(0.942990417878328 0.159799927532802 0.291947007092329 0.0892055237547194 -0.966451223902142 0.240861799274392 0.320642240388416 -0.201087083072391 -0.925609279718032)
(0.443018517522109 -0.760063057883948 0.475435317548681 -0.878470452385059 -0.262175664986284 0.399441591444092 -0.178953226902737 -0.594615900165058 -0.78384161273308)
(-0.968413740340475 -0.241559678455013 -0.0618364719601706 -0.246284323062518 0.965393040081249 0.0857922512603583 0.0389725510251442 0.0983117485725584 -0.994392246731238)
(-0.814632052281093 0.57899683813207 0.0337235945498068 0.57786111572829 0.815248845814778 -0.0380243386126289 -0.0495090933622309 -0.0114882910277172 -0.998707599272035)
(-0.769360105645479 -0.584552161121474 -0.257650536132552 0.583808684879796 -0.80712013005723 0.0878892207004014 -0.259330768132322 -0.0828001605349599 0.962232656957393)
(0.989196919776297 0.127360233914521 -0.0725866704176736 -0.138509239758271 0.974182227825077 -0.17828117537013 0.0480067121001984 0.186409114066367 0.981298628240313)
(-0.755364701425718 0.653803473026774 0.0443304240693048 0.548280887317073 0.593500966492599 0.589189843238284 0.358904216251131 0.469358734264613 -0.806777628672661)
(0.183717533059158 -0.974115193484904 0.131709748570576 -0.353320809397965 0.0595958881552061 0.933602022149352 -0.917285273888676 -0.218054855338879 -0.333226359056598)
(-0.990858345336807 -0.134843902716012 0.00410626067373112 -0.128093094687458 0.930829341345408 -0.342270209606188 0.0423308229284042 -0.339667277185761 -0.939592593755089)
(0.311537922199371 0.948483608385553 0.0576451876189114 0.950232729359774 -0.31105142345405 -0.0174577209475713 0.00137225550559766 0.0602150860759172 -0.998184482109243)
(0.710074210904528 -0.199727190736932 -0.675206386439468 -0.0934630423539979 0.923707125987835 -0.371523626588175 0.697896320897485 0.326916189075469 0.637233497705611)
(0.517259031386599 -0.556042128056912 -0.650584541988923 0.622555041809794 0.766089382167701 -0.159788230001822 0.587254897268812 -0.322372781660999 0.742433482056102)
(-0.312408166409033 0.274521067037402 0.909417022775356 -0.0841196542557903 -0.961567277751535 0.261366130409792 0.946216159938538 0.00515306803255413 0.323494087366399)
(-0.995600150213713 0.0727210759011864 -0.0590930284738054 0.0471831070774543 0.933918810361434 0.354357743050157 0.0809573671814343 0.350010429520118 -0.933240914194289)
(0.137194274731756 -0.877348608774433 0.459822954692775 0.471427035422769 0.466100627883479 0.748669990689573 -0.871168342660204 0.114059735964067 0.477552191261312)
(0.743558609587016 0.668247299799329 0.0237937054686448 -0.469306611663388 0.546883221568863 -0.693303718593439 -0.476310716190653 0.50434540572644 0.720252603858244)
(-0.916824697003735 -0.215896837911957 -0.335888419484251 -0.322569235089374 0.896271595434978 0.304378573145835 0.235332878148944 0.387409063647273 -0.891365611781202)
(-0.842606026504852 0.125590567973684 0.523681289845029 -0.526515782304894 0.0121419205570444 -0.850078646214014 -0.113120356618828 -0.992007854304205 0.0558945607120717)
(-0.987775007834691 0.124917635588681 -0.0932529796634391 -0.132081894867515 -0.352948303522593 0.926273106642274 0.0827943654204971 0.927266455426625 0.365132871288193)
(0.298694323716643 -0.765703657295895 -0.569631117639431 -0.954316158744312 -0.234704183205442 -0.184917861617981 0.00789747674625901 0.598842095706002 -0.800828180243107)
(-0.517675490808422 0.834279875450461 -0.189708132758254 -0.744412239087103 -0.329904901939217 0.580528357596596 0.421737482936465 0.44174635832663 0.791831832140875)
(0.527605935355827 -0.8492998125735 -0.0179389336338747 0.0056877071601937 0.0246486115544554 -0.999679996766814 0.849470203694375 0.527335068349389 0.0178353223795364)
(0.977607375349781 -0.0862049790804752 0.191970105077448 0.198126087854672 0.684489914338095 -0.701583644678829 -0.0709215973671955 0.723907631366849 0.68624184386827)
(-0.835805882359298 -0.537302860369264 -0.112845749820728 0.534190031981092 -0.843316012675391 0.0588142201964734 -0.126765676528134 -0.0111238034990773 0.99187031624607)
(-0.079171154880265 -0.758403521558024 -0.646959061087572 -0.732588206020291 -0.395872096017675 0.553714551004888 -0.676052104970391 0.517792798407781 -0.524255824271073)
(-0.814406470069351 -0.457116439002394 0.357472604129252 -0.545524591415182 0.393062843403565 -0.740205729035383 0.197851008767905 -0.797838431218549 -0.569481181427663)
(-0.243462736643356 -0.937714435982998 -0.247825608876921 -0.9381454251699 0.292528537320836 -0.185230170560088 0.246189067789198 0.187399816974354 -0.950932306475631)
(-0.203493789789416 0.959401393764879 0.195292711484964 -0.728811607964853 -0.0152408139980741 -0.684544635275422 -0.653776657286589 -0.281632177193382 0.702324283473446)
(-0.903027335952208 -0.0798067401496351 0.42210486226736 -0.267617093463711 0.8731393395125 -0.407441756674141 -0.336039762244134 -0.480893520462028 -0.809826339512702)
(-0.966328689582015 -0.251153608675878 -0.0559529135951763 0.256180158315483 -0.918697686137115 -0.300609860070766 0.0240954389078053 -0.304821958420641 0.952104502398999)
(0.195770903937705 0.979122416998742 -0.0547087351522101 0.959251882189778 -0.202791470319512 -0.196752245428149 -0.203738998934377 -0.0139610922277376 -0.978925690855555)
(-0.0756013024948272 0.502840168780869 0.861066900839599 0.97651325844393 0.21206171941721 -0.0381009611563198 -0.201758021263851 0.837962762787371 -0.507062233889936)
(0.200669943283026 0.516487304848359 0.832449660816356 -0.362370806409154 -0.750332406438727 0.552891199523242 0.910175242755573 -0.412604100535063 0.0365907597145149)
(0.394185881590509 -0.918655150029036 0.026271773443047 0.918934629184257 0.394396984720862 0.00318837405022049 -0.0132905244706614 0.0228852303510728 0.999649752758972)
(-0.579810281197534 -0.773795088491174 0.255070968251137 0.760209828710331 -0.401182521824387 0.51101232912214 -0.293088816145968 0.49019765932689 0.820856382469304)
(0.316970801577672 0.942204194665959 -0.108539239453199 0.355276200783084 -0.011846733725117 0.934686298207684 0.879379515399549 -0.334829673795375 -0.338497795327735)