/*--------------------------------*- C++ -*----------------------------------*\
| =========                 |                                                 |
| \\      /  F ield         | OpenFOAM: The Open Source CFD Toolbox           |
|  \\    /   O peration     | Version:  2.4.0-MNF                             |
|   \\  /    A nd           | Web:      www.OpenFOAM.org                      |
|    \\/     M anipulation  |                                                 |
\*---------------------------------------------------------------------------*/
FoamFile
{
    version     2.0;
    format      ascii;
    class       vectorField;
    location    "0/lagrangian/polyMoleculeCloud";
    object      v;
}
// * * * * * * * * * * * * * * * * * * * * * * * * * * * * * * * * * * * * * //


4298
(
(0 0 0)
(0 0 0)
(0 1.24633237110649 -3.92588107718396)
(-1.14988538292556 -1.33459067154411 -1.43458115029762)
(-0.835115185247928 -0.86963650500502 -1.34221520190859)
(-1.7784544524611 0.379356677418859 1.97952969906393)
(1.71735088019521 -2.9245363598914 2.08539503401976)
(0.391494693165335 -1.29289199078679 -2.88419907352083)
(-0.931497706953834 0 0)
(0 0 0)
(0.0819002605021836 0 0)
(-3.06661783023195 -1.43587995008684 0.364783400070653)
(0.969909129109463 0 0)
(-1.76761043135969 -2.39916633717905 -2.16020207983592)
(0 -1.64980113412513 -2.09935075443392)
(-0.456613641583693 -0.705191748233541 1.4540997679309)
(-3.53994975034666 -2.15654706348431 -0.844730533700534)
(0 0 0)
(1.27901392472956 2.05551133278716 -0.112761993983538)
(-3.20863604848108 -2.43477444317262 1.92108546525055)
(0 -0.637957969752406 -2.2548324126371)
(0.662954734594618 -1.08576467244379 -1.01417006689506)
(3.92612293771212 0.254036382900627 -1.60009000514684)
(0.941435799823544 2.87896252478797 -0.911137739547805)
(-2.81937000802781 -0.736188897648783 1.39854061632297)
(-3.24882107143249 0 0)
(-0.78271334880877 0 0)
(1.41887712407987 -0.0399998218864088 -2.00147310212595)
(0 1.50419131948796 -4.19046590829774)
(1.64071837065341 -5.12677147082363 -0.266974481051101)
(3.14013565816736 2.13094085794487 0.643153559948572)
(-1.69484074972545 3.23565681226333 -0.265004897332366)
(-3.38355034766369 -1.98934811097206 -4.56717692445435)
(-1.8216990156629 -0.710448424990371 1.90601568063472)
(0 1.7477937125076 1.96169077742756)
(-0.272501801702684 -2.71183073824498 0.523434169083997)
(0.90291593465514 -1.60675568567052 1.19801206757452)
(-1.97107172237211 -0.0386628565454392 -1.48410563093066)
(0.288056264031331 2.99422135854119 0.42271256133201)
(-0.44667117135703 1.46711662481035 0.14275862644706)
(1.57579015898592 -0.37384591561045 -3.60911635680983)
(0.684465688284427 0 0)
(3.12208998200082 0 0)
(0 -1.5745876080975 -2.16275377118589)
(0 1.28412491015055 -2.19563599081485)
(0 0 0)
(0 -2.63282086839046 1.40324433880798)
(0 1.63794642423931 -1.14423051199848)
(-2.40614922626498 -0.975272578992433 -1.67766616856932)
(1.25855742984059 2.95277016754275 0.0481299545549999)
(-0.881637686028919 -1.17421921789864 -1.10833527096885)
(0 1.78593397784565 2.38610091652587)
(-0.724272215382684 0 0)
(0 -1.53095155036324 0.556303616602677)
(2.05415595835324 3.56900262587808 -1.87690729814076)
(3.6412353961866 0 0)
(0.413328734656496 0 0)
(3.93983330718354 3.7825786236065 -0.226389478216995)
(0 0 0)
(-1.48920903379549 7.03885367845976 -0.939332743698124)
(0 -1.88325323350585 0.727706828931111)
(2.78772558697938 1.47293103166932 0.0303986552328442)
(2.42937998014223 -1.42065326587659 -0.749397334775183)
(2.12855987564409 -2.25946452084751 1.83383909998075)
(-1.13313953390192 -2.03042699065909 2.43063291592532)
(1.00805446250634 4.16695432322665 0.0686600770140221)
(0 -1.26931752405244 1.86107992517018)
(2.41321358593648 0 0)
(0 0 0)
(-0.473025585056627 0 0)
(-0.45393223074045 0 0)
(-0.730941087910185 0 0)
(0 -2.31217445401446 0.11833306976172)
(0 -3.51532507058511 -1.0480572117494)
(0 -0.530501677323914 1.94493037892605)
(0 1.32028043089611 -0.811523716158764)
(-1.63581738079763 3.73312675118354 -0.617066916438211)
(-1.92242146221143 1.00620323951062 2.40997012639543)
(0 0.686035059059068 -1.86742619994084)
(1.72865854433662 0 0)
(0.0109896744143485 -1.38811174841753 -2.26142086004018)
(3.22280342490363 0 0)
(0 -2.44140845262798 -3.59334418799498)
(-2.82114552198381 -1.62207071898525 -1.21495075130654)
(0 -1.90305016017923 -1.88438485778667)
(-1.4104456223212 0 0)
(0 0 0)
(-2.18101939432829 1.71985181572335 -0.855990503277256)
(0.74126475984275 0 0)
(0 -3.62585380392393 1.43397853100387)
(2.97074596565452 -0.531504027267637 1.54821210152921)
(3.0071845109332 0 0)
(-1.8516212940362 0 0)
(0 0 0)
(-1.98047498228366 -2.16815076871788 -2.96117791261844)
(0 -7.16898532763886 -1.83904105085964)
(0 3.09238746247563 0.118156601409137)
(-3.94562215760843 -1.11121725278701 -1.04074144351708)
(-2.568354482884 -2.34346780661572 1.10691583405002)
(-3.43211031594585 -1.61018642130599 -1.7093591211526)
(0.919977509409246 1.21466297406327 -1.51342584103929)
(0 0 0)
(2.10921520538078 3.15629542638881 -2.00524461044893)
(-3.07466434957838 2.45916970946005 0.650875027344988)
(-4.56965516956367 2.57566214157697 -0.960368864627969)
(-1.57104037885002 0.979566459231805 -2.07534410797364)
(-0.763206053125513 -2.17036544400524 1.95217219984688)
(2.40964713016175 1.51928901874001 0.357257636338174)
(-3.11716898188203 -0.216689662833707 -4.3679084459715)
(-1.73951516554149 1.6444794582239 -2.78421862584128)
(1.37367437298914 0.452938160422834 -2.57640382595395)
(1.08819827975745 0 0)
(0 0 0)
(0.104808401329747 0.577301002822902 2.88641989972649)
(0 2.13952110973581 -1.50815976503293)
(-5.31836679079669 0 0)
(0 -0.886500155789785 -1.2762700736624)
(-2.66364993637772 0 0)
(-2.70742171958996 4.71589305519949 4.90635577271945)
(1.82128913879335 1.56253535775662 1.6988481121698)
(-1.33483016940109 0 0)
(-0.783994777594363 0 0)
(-1.25378004538564 0 0)
(1.87286622381863 0 0)
(-0.836164958610658 -2.21799999285248 -1.03697799892819)
(-0.0181881710218972 0 0)
(-1.73966291227682 0 0)
(1.10278372915939 -2.15396659032683 0.877662003852543)
(-5.1629634428217 -1.7815598190304 -0.732001973711368)
(2.57835342925519 4.98840091992152 1.63358532700077)
(0 -1.15317662472288 -3.16487275099065)
(4.65823780735289 0.56881249688011 -2.59029564616776)
(-1.9921687022843 2.28434184485679 3.66395876203054)
(-0.571659577024931 -4.0906840413417 1.31522812001692)
(0 0.817211483210266 -4.76675499273677)
(-2.59374420114115 1.21234072706572 -0.950148637417232)
(3.81244646564237 -3.72404148766229 -0.103300138685769)
(-3.98815442413599 0 0)
(0.878089082954474 -4.11533725490761 -1.66836152854601)
(-1.58575264720492 1.87416734889383 2.61227804797183)
(2.66044553536766 3.61662257876918 0.888336267460294)
(-1.27444242137904 0 0)
(0 0 0)
(0 0 0)
(1.48287729555023 -1.24861918272482 3.33408877121844)
(-0.0608265056807913 2.31214916654464 3.11224630527011)
(0 0 0)
(0.830285348704059 1.49406706948434 -1.2502132113155)
(-0.965011320976437 0 0)
(0 -2.210458913442 -0.396661472857622)
(-2.81042261978699 0 0)
(1.5118605505732 -1.41988641580223 -0.786944525016142)
(-1.32376979816009 3.18869013306039 -0.563152652011166)
(1.10947416162831 -1.22707997665392 -4.13963587139675)
(3.45804282566595 0 0)
(-1.16398297024714 0 0)
(0 0 0)
(0 4.41555834920045 -0.36851979109518)
(-5.15340485409916 -2.51196037468264 -0.225939268791841)
(0 2.83860917697741 5.28835255606775)
(-1.26931242708872 0 0)
(0.0908993547100373 0 0)
(0 0 0)
(-1.26364162687019 2.1193183339381 -3.70273807852342)
(-2.18046559869842 -1.13231216548589 2.6940543086158)
(-3.61088154691566 2.90496598825182 1.25819378721992)
(-0.835144703499829 0 0)
(0 0 0)
(-0.484801545610738 -1.52134288189538 0.275328855544513)
(2.43097762702173 -2.62678226011508 -0.542938926643767)
(-0.0427539311745726 -2.60480826387126 2.78133020392055)
(0 0 0)
(0 0 0)
(-1.12765195618067 1.19637780549995 -1.64242140408385)
(1.66308037837656 -1.11330461366617 2.02960541437938)
(-1.47049812740259 -1.56673842413223 0.296646084348999)
(2.41286879090972 -3.36314832224554 -2.38148882152551)
(0 0 0)
(-1.62141530297606 3.50763376408057 -0.407467583080037)
(-1.13314317296299 0.2431164651869 -1.52743275558604)
(0 -2.04141647549815 -0.124430803231159)
(1.91688331378438 1.88509644274574 -3.19321753758926)
(0 -2.54581767946547 0.82732055312814)
(0 0.819038171516992 2.99472330728772)
(-0.369696183543948 0 0)
(-0.524366164181888 1.48231288103386 2.32925970134722)
(0 0 0)
(-3.18932290216437 -1.66634077641278 1.16752914994504)
(0 2.03617237529419 -1.71559336585049)
(0 -3.16031138338031 -0.981672546260999)
(-2.18805031121013 0 0)
(0 -1.88126639031147 -0.404883835390328)
(-1.4045639242323 3.20391573408072 -1.25360502042416)
(1.40904929037631 0.766117436737254 -3.38770561595089)
(0 1.48683484854716 0.452512235113726)
(0 -0.305001944909857 1.568285109629)
(-2.02243900879053 -1.99815325787317 -0.0295001128321224)
(1.9977212628849 0 0)
(0 0 0)
(-0.93994093204416 0 0)
(0.630008911316874 0 0)
(3.240358212457 0 0)
(0 -2.84300947746872 0.145570498985978)
(3.59349807185626 2.2601362090932 2.61657772212475)
(2.41996939459527 0 0)
(-2.84964266795678 0 0)
(-1.02598960268517 2.33750363761971 0.0658132450247365)
(0 -3.03097735040882 -0.639210989116001)
(-1.36702752568464 0 0)
(-2.97002698388102 0 0)
(0.296702560658139 -0.172051557112069 1.47252428409615)
(0 0.551480156023866 -3.35566282883298)
(0 0 0)
(2.5770141119058 -2.32689765973528 0.859878836850088)
(3.14797860811314 0 0)
(1.79627259189385 3.16037282360365 1.4505482575588)
(-3.81593245111196 0 0)
(5.1400787038787 -0.876601499796773 3.05127470597452)
(-1.51840488599117 0 0)
(-3.36794059812638 0.610816649517554 1.50938858539232)
(0 -0.541504149797732 -2.48262486982134)
(2.31121168887239 -2.58259640329376 3.10556906936268)
(2.41239829668914 -1.66549866845337 3.24407544156079)
(-0.66955023054515 0.67700779938238 -1.39427463494651)
(1.80401047833793 -0.505105992860323 -1.49998891157405)
(-1.8534748994182 0 0)
(-0.0898156854434105 -2.47163657542544 -2.04590742939373)
(-1.97271486994246 3.57714326557634 4.42376952574057)
(0 0 0)
(0 0 0)
(4.02548186848207 -0.119940605287852 -2.98043517205175)
(2.02199365372141 1.53877665267779 -3.52057368892151)
(0.771884544893235 0.920804452627125 -1.31989294316497)
(0 -0.963046706180007 1.11555381722095)
(0.788084452030741 1.80538290220453 0.971733831703304)
(0 0.121418706919579 -1.50142349071753)
(0 -0.42930936602627 -4.51355365779905)
(2.72782386895035 0.898931288382107 1.21167082528715)
(0 3.84430921584043 0.0878546218410006)
(0 2.97623504674233 1.31180762396648)
(0 3.67803570899823 -1.57517984723963)
(-1.99302038709911 -2.89912006288791 -1.36233411936555)
(0 0 0)
(0 1.99687906447499 -0.430440264771173)
(-0.507751178438731 -0.181729935917288 -1.54167409878658)
(-1.56858513531004 -1.02457019432636 1.25321288821896)
(1.43310923462886 0 0)
(0.516037835021706 3.17435138487763 -2.92946516276789)
(-3.94042216456862 0 0)
(0.883029116984558 -1.54576800015359 2.2538005642748)
(0 0 0)
(1.76436895939918 -1.66557063464031 -1.60223289348206)
(0 0.431684391386488 1.44718857915803)
(-0.212717169113476 0 0)
(1.47514081354594 0 0)
(1.30928966887163 2.71168080552995 -6.80011207617451)
(0 2.00375030669628 0.484245576368934)
(0 0 0)
(2.76290987825147 2.550195364596 0.764275113237753)
(-0.981644806376161 1.29454663649562 0.78385558489534)
(-1.3796675565637 2.69946527209663 0.381773269126282)
(-2.16034816266948 -2.3777184102049 0.919404843196841)
(1.75776650609325 0 0)
(-1.67910167869989 -1.55520058927318 -4.0016190922162)
(0 2.70230660248261 1.92762956478271)
(-2.59268530510745 0.958802793713454 -1.18047275570156)
(0.611537079662729 -3.82059528753407 -0.904251529927183)
(-1.04421246916305 0 0)
(1.14122213761297 0 0)
(0 -2.60890611995869 2.16044008401078)
(-1.74396707173758 0 0)
(0 0 0)
(1.00678848743461 1.64263205589456 -1.26505056063342)
(-1.93331883971541 -0.0611378758543816 1.52827060689628)
(-0.29739234473632 0 0)
(1.14866754564085 -0.236425490971585 1.50960581451982)
(-1.77459578576712 0 0)
(-2.71830206874818 1.2825666529305 0.775427699470644)
(-2.33484942911833 -2.47146578316005 0.331260885003399)
(3.70619900440459 -5.28371594837257 1.02799077704601)
(0 2.49986793399557 2.2803101976351)
(-3.31992590357158 0.973806380974018 3.22522630534773)
(1.46007352821385 2.72934506645979 -1.62410511078727)
(1.00703467188054 0 0)
(2.01702948509193 -1.56255461485448 1.6617331248966)
(-2.55958623693737 1.13545502369133 -1.55901136084959)
(-2.010910484011 -1.19820367028261 0.920775251048438)
(-3.8811821249934 -1.48892095216786 -1.77368507421976)
(-0.680496507133605 4.22194743547954 -0.851185426801291)
(2.20561920323194 0.885744807430236 -3.65663533867529)
(0 0.919995079265149 1.27314723200145)
(-1.02138196229262 -0.940959309180886 3.46093704762058)
(0 -3.54845939602922 0.635741269948592)
(0.57155437733401 1.1948211591313 -4.8276391287536)
(-1.4493898311046 1.48934601078426 1.23207101599945)
(-1.70223185925519 2.43507048801736 -2.8747633182686)
(0 0 0)
(0.627718726350806 1.55411766408758 -1.2023693061061)
(-0.551876683342767 0.416649314341648 1.98866429696141)
(3.96663852426238 0 0)
(2.69915504440824 0 0)
(2.17652206643386 1.33376021358177 1.41863206081802)
(0 -2.23805027279864 -1.99804387192254)
(1.98705859599436 -0.804722010124336 -1.2966831407914)
(-0.905487077395092 -2.22180832391056 2.84787957765725)
(0 -1.17530171666891 -2.35653999673615)
(1.37668590472843 0 0)
(0.261058081782443 1.82970104091813 0.927199863619102)
(-2.91653052226079 1.49167130160857 -0.0364412838564334)
(0 -2.27667053085128 2.25287668084722)
(-2.74652915739681 3.62977395179087 1.8691623954965)
(0 0.111221674134427 -3.17019595407219)
(0.881112834519008 0 0)
(3.81205325007426 2.29276600604437 -1.52585411471321)
(-2.33299181574383 0 0)
(-0.937520614414326 0 0)
(-2.85832480267157 -0.528733739103331 -4.84365558467765)
(-2.21270599474678 0 0)
(0 0 0)
(0 0 0)
(4.12815496820995 0.412484472489749 3.05203794254402)
(-0.285044578726535 0 0)
(-1.97528379422478 2.48784169507914 3.11957728894961)
(0 -1.49344801249154 0.0236471906045458)
(0 -0.0213302586976226 1.5985885229157)
(-1.69533765485747 2.02156011065962 1.17828857058774)
(3.02120854827039 -3.07093922207185 0.369566868112076)
(0 0.618397409876547 -2.60476532259137)
(0.493120450088573 0 0)
(0 0 0)
(0 0 0)
(0 0 0)
(2.40286440378808 0.186331730903236 1.61827219784494)
(-1.64485044259246 0.978523532702986 3.45789919051641)
(-4.16590824825475 -0.401260698813099 1.90613067068204)
(-1.86307537283476 0 0)
(-1.638296500936 0 0)
(0 -1.35038280504148 4.15005710284279)
(1.32409842685579 0 0)
(0 1.73454907420764 1.69086955971509)
(2.58670210705561 0.831411268353609 -3.67429739548803)
(-2.15988498065949 2.1457960779983 -1.96716884950608)
(0 0 0)
(-1.5184399966123 -3.68950629075212 0.732733367807269)
(1.9882483621649 3.38251627669274 -0.697332953596029)
(-1.31473459274358 -1.08639143356998 -1.69211633510229)
(0 0 0)
(-2.00922037334382 0 0)
(0 4.26687884497347 1.25322170939826)
(0 1.5053287659614 0.427623288329727)
(-1.6970639592421 0.441116032215312 1.48467873713946)
(0 0 0)
(2.55914778601865 -4.39376460173017 -2.0249341725837)
(0 0 0)
(0 1.39862225443772 -3.04804182467564)
(-1.00876922664425 0 0)
(1.50308480930226 1.27509003399185 2.25267131163927)
(-0.419612224941037 0.330648707665904 -1.97348783744021)
(1.48248330059973 2.02288904128203 -0.224297171620317)
(1.62993843400416 0.32022575277367 -5.56346377887379)
(-1.32121814866002 -2.3594784752531 -1.97790394653017)
(1.3920959365985 -1.10468867542162 -1.1848658760353)
(-2.59950658918221 -0.767265246414477 1.28500252568012)
(0.593936207532442 0 0)
(0 -1.69307162838877 -1.46844974073676)
(3.00120717215658 3.37465796043863 2.76721773731129)
(1.75593590946887 0 0)
(2.75593064696293 0 0)
(0 0.836491746348504 5.70030783775321)
(0 0 0)
(0 0 0)
(0 -0.168683230191731 1.46362661706979)
(0.44921882525821 0.244075907082642 3.47269347420337)
(0.782722363280293 0.0345876226775611 2.75519187800824)
(-0.380768354200794 0.513490385914446 -1.39181715510137)
(0 -1.03819619530086 -1.05118375060245)
(-0.997026778403727 0.441724687223468 1.55362265533672)
(2.90985473153085 0.546241568216827 1.51009949774364)
(-2.01376013104772 -1.27851086437561 0.894218388852831)
(-1.48771780663664 0.588297328753765 1.46865189040079)
(0.406835914270579 -2.53646470830972 -1.24684907306491)
(-1.92409683385146 0 0)
(2.37739360707483 -0.928160395154163 2.42714677264272)
(0 0 0)
(-1.91498744988935 -1.13219689708744 -2.80888888944257)
(0 1.76867369979127 -1.6790908599537)
(-2.27435271745121 1.04532200574095 1.67441330606411)
(1.74426281600199 0.716960802619492 1.47040810508822)
(0 -1.59503879869868 -1.18472728316936)
(-3.40673277253496 2.02304887393288 -1.62134265391657)
(0.652228921087673 -1.15335746626767 -3.83427564979919)
(0 0 0)
(0.729989506674507 3.28745482913482 -0.643855451755495)
(0 2.77953192859197 1.10716420267235)
(0 0 0)
(0 3.28982137041199 -1.8354789766724)
(-1.44076927180556 0.138283731763181 -2.25725482328341)
(-0.583233108111874 2.83812496421025 1.08693033379279)
(0 0 0)
(0 1.44586270275939 0.582675734858905)
(0 0 0)
(0 0.755371956357753 2.51201176785689)
(-1.00320682656011 0.861767628632011 -2.29229480898288)
(0 0 0)
(0.758821579249611 0 0)
(0 0 0)
(-1.28392617268958 0 0)
(2.56385806290164 0.897922232175378 4.71794722287979)
(-0.941070232602198 -2.00772037272801 -0.438376663341454)
(-4.11856931827532 2.26353973355525 -3.00637346289163)
(-0.88140401854547 -0.801080610162135 2.65152183374147)
(1.8012920749066 3.3591672010156 -2.23678054971964)
(0 -0.139648881951429 -2.42564678439616)
(1.13249837468126 3.34933325273097 3.62757777767762)
(0 0 0)
(0 -0.774926934796795 -1.86052291961687)
(-0.255585982514656 0 0)
(-1.17076700639413 3.36258780268134 0.532089484464724)
(2.97530617991257 0 0)
(-0.5309217811338 0.271943744230232 -1.96716778943381)
(0 0 0)
(2.11770118648022 1.91671703174757 -0.327364555299419)
(1.29960498628714 0 0)
(1.427883095006 3.09440269075594 -0.705999999374529)
(0.463746006617037 0 0)
(0 -1.59401416251189 -1.54080357953377)
(1.88746391463189 3.20937783647016 0.701900511324372)
(-3.36660947289091 -1.55675637669372 1.57291280152411)
(0.224887375796997 0 0)
(2.71494963841795 -0.443957049151223 -3.11408892089984)
(1.55749745810323 0.25941936743759 2.31606038835241)
(1.69549186805713 1.83870074708975 0.685901830948965)
(-1.93037502815371 -1.88503832664806 0.746922298115424)
(0 -1.34427010323727 -0.765943202711678)
(-2.2315037145104 0 0)
(-1.52410882284706 0 0)
(1.23221713312406 0.820924924509906 1.38003542809208)
(-1.41495887691893 1.75435001726603 1.78075642615011)
(1.51980833993538 1.88333625487496 0.599104378034649)
(2.44442128496376 2.54818147472934 0.960687616340784)
(1.61033429314363 0.299641949058791 -1.94423531923101)
(3.21209962872042 -1.46608302419645 -0.513062743967178)
(0 -1.07648645815214 1.64079627261141)
(0 1.42011011033125 0.618709977508206)
(0 -1.65050127755915 3.72003494720392)
(-2.50324468707288 0 0)
(-1.73648620690443 0 0)
(0 3.56373801422893 0.604751483975964)
(0 0.129140161774383 -1.60396336974333)
(0 0.948964972579528 -1.29057687814424)
(0 0 0)
(0 0 0)
(0 0 0)
(0 4.3176713141058 -1.8479511952204)
(0 -1.51356004754398 0.440513702609825)
(0 2.30691907278814 1.66780683363488)
(1.47473304114822 0 0)
(-1.55469771561059 -0.94877863138052 -2.34686517233665)
(-2.78320643955242 -1.57248917096644 1.20840309135097)
(0 -1.92369840239511 -4.45209634115992)
(0.755221867490683 0 0)
(0 5.09230174588548 0.404838521082072)
(1.74592463713406 -2.6694870313228 -0.0121627745029688)
(-0.18375888462233 3.36221907557448 0.00881234383208798)
(-0.823128670977001 5.43696661153281 -6.00340148482513)
(-0.920196968337764 0 0)
(-0.911333568991772 0 0)
(1.69413984107591 3.0387448518965 1.85273145617768)
(3.94347411134107 -1.66161142534664 -1.1256039627949)
(-0.229345660716964 0 0)
(-0.00638330630336545 0.454972549481071 -1.56573496327114)
(-2.39587131163693 -2.66335786904282 -1.99441792762712)
(-1.27375867703345 0.0151526308345144 -3.41928893789908)
(1.43540797504655 -3.25859547286771 0.936709573436763)
(0 3.16479813502131 1.41621065049424)
(-4.13463582902965 0 0)
(-1.55769547163496 2.21651402995125 -2.39007710982859)
(0 3.15253457241254 -4.49254859122511)
(0 -2.58202458393071 0.527428295933541)
(0 0 0)
(1.52897955397015 -2.5617299553547 2.66689878038211)
(2.240294126402 0 0)
(3.07613915726997 2.0550367674155 1.73284886740468)
(-0.573604385977697 -2.53934248220078 0.644436305492084)
(0.351383702545669 1.89732953132254 -0.774880764959589)
(1.98993933758491 0.533923896512145 1.51028978527392)
(0 0 0)
(-1.04754809737168 0 0)
(1.49100891431383 -2.16987490931846 2.2431540272754)
(0 -2.69856921213162 -5.01762233608734)
(1.95004235004735 -1.52450033963606 -0.406927972606478)
(0.805167095693301 0.16787204188499 -3.94671958861751)
(0 -2.16913401180549 -1.30134900525188)
(2.33026155143844 1.39008614566177 -0.5624990657911)
(-0.82595309526427 -2.09095988405256 -1.89996980949934)
(0 -2.69929922278061 3.22307716886775)
(0 0 0)
(0 0 0)
(2.46319694552185 0 0)
(1.59883430132072 0 0)
(0.0674107162319554 0.0913895380288431 2.69782292722463)
(0 -0.844385548462748 1.2047931926027)
(-1.71138188797159 -2.18047186772415 -0.442272087068875)
(0 -0.756767144932336 3.86170857163723)
(0 1.37131957928005 1.48368470319519)
(0 3.63909739374153 4.35463398208455)
(3.22983036530003 0 0)
(-1.29256689456532 4.59515645740364 1.6103209980455)
(-1.37303644913012 0 0)
(-1.54472038471176 0 0)
(-4.05941694987594 0 0)
(-1.54099645525333 -1.55034522039821 0.406579322738635)
(-2.61415153530759 0 0)
(2.00417394289667 2.41754814956294 1.55221603251189)
(1.0365980188124 0 0)
(0 1.54875182957175 -1.20840897185986)
(-3.32115914305088 0 0)
(0 0 0)
(0 -1.28214867999484 -0.886552522633029)
(3.3407187140382 0 0)
(-1.4598999444848 -1.87562851616837 -1.28266901637831)
(-2.18076070214796 0 0)
(-0.770969081525874 -2.39300613936903 -0.378841771135466)
(-1.87998612482842 0 0)
(0 -4.15237621537833 -1.99882130247208)
(-1.70228888781681 -1.24258713751035 1.52211825140926)
(0 0 0)
(0 -1.14911527357535 -1.64054926295384)
(1.71140002471772 2.6974077761659 -1.85162768654373)
(0 -2.50405789490952 -3.74400116248549)
(2.73018213611535 1.34229375944612 0.797231389739994)
(1.82393226683619 2.40029249779225 -0.621533555259906)
(-0.202081315370398 -4.17227624407275 -0.552378763337562)
(0 -3.37173765365096 2.77962212533413)
(-1.56991334093814 2.4291866135463 0.771599128143153)
(0 0 0)
(-0.844309542722468 0 0)
(0 -2.86724910646786 -0.948051187783655)
(-1.22959887097871 0.628446706743958 1.35682543844731)
(3.48220818206957 1.61396935151446 -5.24064885710473)
(0 0 0)
(0.523519876385499 3.47981871850699 -0.558762492834129)
(0 0 0)
(0.154253146740341 1.64468847525429 1.17090199591615)
(-0.00495366755463329 0 0)
(2.341452212089 0 0)
(-2.90962503342621 1.99622679245973 3.79286886957857)
(1.40601246595217 0 0)
(5.12323357674701 1.52771219501737 -1.68321333267584)
(-1.71262125563835 -1.3007329455441 2.36804021550177)
(0 -2.64865664943714 -1.72365463373277)
(1.01552454669547 4.8193019869892 -2.44927637910221)
(2.8576445039941 1.51921335715417 -3.22675922579038)
(0 2.98626841410674 2.22064288800088)
(2.29254843865543 -2.96128284712759 -3.65283621902669)
(0 0.744710810224719 -1.82741557997961)
(3.18612557259555 0 0)
(-1.61772775103713 0 0)
(0 0 0)
(-3.75971452022674 0 0)
(-0.063000430179097 0 0)
(0 0 0)
(1.27883674134541 1.04894193989761 2.92363403200405)
(1.37273933505021 -1.50582712187416 -0.441242447542162)
(0 -0.773018669863782 3.71601124730192)
(0 0 0)
(-0.453932645815514 -2.72171683760005 1.1443391394226)
(0.370090198365471 0 0)
(-2.91880286147422 1.76074078623923 0.972594270747277)
(2.70688823144894 -2.91586768933557 1.90160707681948)
(1.85394119460137 0 0)
(-2.16163225514884 0 0)
(0.85133183145399 -0.00255422723348834 1.58119657100921)
(0 0.993081472031261 -2.68000033722787)
(-1.14384845890974 -1.95743561292815 -3.47619424312006)
(-0.823160488007221 -2.43309628667606 -2.90731961495312)
(-1.7646756842864 1.53311002560869 1.36288657726196)
(0 0 0)
(3.21358673598089 -0.901073325359784 -1.21612776327931)
(0 -0.523289484774594 2.22053470886398)
(-0.660533555996862 0 0)
(1.55948422544525 -0.682966223190626 -5.75278370474742)
(0 0.909833195334457 1.28150493254722)
(2.56808197314717 2.21079066509913 -1.69361707100811)
(-1.93482067896572 0 0)
(1.47837237436783 3.85988924199436 -0.379550280746848)
(-3.30738879625834 2.41122452449758 -0.605775433590034)
(-1.50348114968775 -1.37021198684022 0.760761903387589)
(0 -4.80245291412508 0.159501030767164)
(-1.5830749865126 4.34182376153984 -0.92792407147607)
(5.48929726621769 -3.98784087852569 -1.37115529001287)
(2.46664266411629 0 0)
(0 -2.36550337260215 1.41022401379367)
(0 2.23211615481744 2.31950069222083)
(1.3890131071895 -1.29074687430695 -3.36228584511364)
(-1.52977844362076 -1.61270086292987 -1.57663813827914)
(-2.11897897228677 0 0)
(1.16881983672677 0.864821389950421 -1.20369763431512)
(-1.43242796567079 -0.635093296687047 2.65366382814984)
(-3.33018936770088 0 0)
(0 0 0)
(-0.75107321830326 0.312737790555727 1.46629691153318)
(0 0 0)
(-1.99410806429056 0.512372644172442 -1.43138141061768)
(3.49503068886315 -2.22793644380967 -3.07318345381703)
(0 -0.453897005354748 1.89181147210731)
(-0.540323057666201 0 0)
(0 1.43186448458735 3.52672903691197)
(-3.78456577172188 0 0)
(1.02409389831843 -3.08917912698446 3.08833538385334)
(0 -0.992760509756891 1.15968899888547)
(-4.91217065477146 0 0)
(2.71643091909828 0 0)
(-3.59855944760088 0 0)
(1.61110601661792 0.044248499688094 3.25159236148787)
(0 1.94985865165021 1.83626083326453)
(0 0 0)
(0 -1.24628922682111 0.940851380940808)
(1.52178368465119 0 0)
(0 2.6471003365653 -0.330775995463954)
(1.3775273832071 -0.336220779779687 1.4990105014166)
(0 -2.06869092809595 3.25519872645891)
(-3.77490664694492 -0.57853572154023 -1.37950426699382)
(2.28787704461324 0 0)
(0 -5.36529507499531 1.43882886327933)
(0.502112169434986 3.62024511028852 2.75189574436279)
(0 2.40334284216134 -1.46999600345627)
(1.60033573087333 0 0)
(0 0.324387125982043 3.29908197452858)
(2.35952910392878 -2.88912715864631 -0.972634663908627)
(1.46015996004681 5.12199500608665 -0.625451738009758)
(-1.83878911115032 0 0)
(-3.07237403468509 0 0)
(0 2.51586117219669 1.34771883100825)
(0 0 0)
(1.97555724107101 -0.631675137679763 2.54590848747407)
(0.68806030691777 0 0)
(-1.52869734885093 1.48258601066646 -0.00243857545472611)
(1.60313306522737 -2.06464085498274 2.64628392303686)
(0 2.3359515452947 -1.26526741350042)
(-2.43989928205068 -2.84971942533604 -1.85466896894207)
(1.18033475683335 -0.273604822411332 1.47848679337683)
(0 -2.58407111819865 -0.679250167294609)
(-0.786127938454749 1.40376874850853 -1.77046487806693)
(1.55912671746824 -2.09045786514129 -3.22178323842244)
(0 0 0)
(-1.18803173007075 -0.867350915384893 3.01377464927799)
(0 1.00594079438691 -2.86492110444343)
(0 -0.965342261075399 1.80906967529885)
(-0.242622102400313 3.78406842539148 -1.28053198547335)
(0 -2.50389708273494 0.759815527707273)
(1.07057206755089 0 0)
(0.0180919552563591 -4.57226228906755 -2.90186694507086)
(0 0 0)
(1.17650062646054 0 0)
(1.82623500932271 -3.60029995231307 -1.37053358521446)
(0.603093690069472 -0.799046673831251 1.75758295039216)
(-2.5049817732872 -0.507046760579605 -1.51945825735201)
(-3.18377366774417 -1.36915582277501 -0.812663688627535)
(2.51218089496015 3.71430280167892 0.849223556315097)
(-0.749588071392687 2.53828006183763 -0.896747731539413)
(-2.08351844709867 0 0)
(0 -1.93770952800028 1.62613017794368)
(-2.27964032640416 0 0)
(-3.27733572114246 3.25983093857359 3.92799083990275)
(-4.10264655487039 -1.09331078019395 -3.35916959460818)
(0.515549314482821 -0.679103094925221 -1.33590728273349)
(3.09387950801337 -0.977290398452193 1.17028731923676)
(-0.82242156267628 0.151064765597523 -1.56405101344558)
(1.17009497354154 1.39742773731395 -1.87852193684832)
(-2.01387654435886 4.03800670110476 0.660334373550989)
(0 -0.730813290677748 1.90285563863258)
(0 1.37598077506691 4.41000497908654)
(-0.817831378583201 1.48906619933779 -0.450536513135664)
(0 -1.27719350427076 0.95435702835693)
(0 0 0)
(-0.752549930737553 2.18084879786503 1.65002742244767)
(1.67889725335973 -4.46410250876214 0.0575004813122658)
(0 1.31441582081251 0.730365659953146)
(2.81651968661061 0.954838283702458 -1.78994720403569)
(2.04485692151507 0 0)
(0 0.821027481850606 -1.24936011436269)
(2.92622106511937 -3.48999045583485 -3.15248575877781)
(-0.599450950763782 1.40057406965817 -1.4958800918297)
(2.90854352468829 -2.65005077153918 0.193262406529123)
(4.3748286717424 0 0)
(0 -0.793516935879073 -1.76799893097636)
(1.50992815187619 0 0)
(0 0 0)
(-3.18758905874726 -3.80552947450315 0.0424553352175242)
(-0.383375901844835 0.845325366019786 -1.75504136719288)
(-2.42041000189075 -3.38619276290391 -0.7458489484225)
(-3.46609574572197 -1.54634574592692 -0.474470622296157)
(0 0.49547300004651 2.41553900547628)
(2.02797842245542 0.27107097773795 3.00665142386954)
(-1.21039360404643 -2.12984527270027 -1.69018508344778)
(-3.03441118781124 -0.144047003255235 2.01762041900919)
(0 0 0)
(2.28913773737128 -2.34167259344585 3.15504133370931)
(0 -5.41428074261223 -1.85406567582335)
(0 -0.593953440506688 -1.82971321076885)
(0 -0.851440134880733 2.03859715013603)
(0 -1.38571034336781 0.60892727592222)
(0.9870669509977 -3.29183958076515 -0.849838737117925)
(0 0 0)
(0 -1.45963059228752 -3.83565159563513)
(4.21755244207951 4.47241030295826 -3.35176748938301)
(0 2.53204285434209 2.14331184039896)
(-2.42504112027257 -1.48730618104519 -0.617294845477956)
(0 0 0)
(-2.04649683215186 -1.76493200593308 2.49577469379209)
(0.996437923233185 0.898603687432542 1.36147218579186)
(0 0 0)
(2.09323586027596 1.097304555982 1.20241668663891)
(-1.43640040218202 0 0)
(4.00728773286962 -2.68571525436052 0.764695110160679)
(0 3.38564027071162 -1.35548404185516)
(0 0 0)
(0 0 0)
(0 0 0)
(-0.859944167719672 0.232487975992132 1.46960013171476)
(0 -1.55393393460197 0.0378226616180619)
(-5.72131210728569 1.53354076271362 1.60600595571837)
(0.989928902264239 -2.76120400410978 -5.11900059279594)
(0 0 0)
(-1.19829203099361 0 0)
(3.16201185047786 -2.82608414495537 -1.60287554991759)
(0 -3.17861537477263 -2.3391927090464)