/*--------------------------------*- C++ -*----------------------------------*\
| =========                 |                                                 |
| \\      /  F ield         | OpenFOAM: The Open Source CFD Toolbox           |
|  \\    /   O peration     | Version:  2.4.0-MNF                             |
|   \\  /    A nd           | Web:      www.OpenFOAM.org                      |
|    \\/     M anipulation  |                                                 |
\*---------------------------------------------------------------------------*/
FoamFile
{
    version     2.0;
    format      ascii;
    class       vectorField;
    location    "0/lagrangian/polyMoleculeCloud";
    object      v;
}
// * * * * * * * * * * * * * * * * * * * * * * * * * * * * * * * * * * * * * //


4298
(
(0 -1.02681748583979 -1.24224562094136)
(0 -1.39884323512046 -0.883063100240942)
(0 0 0)
(-1.3459025238452 0.588520342439728 0.947467020826763)
(1.59459287263516 0.647551364486299 2.32363418395071)
(0.995450405161113 -1.49596125237002 1.80636897062443)
(0 0.160454054792349 2.1287689573797)
(-1.52181001547933 0.617720726998552 2.88215312182759)
(1.73146533298231 0 0)
(-0.859088312933871 1.22270606362492 2.45330995016741)
(1.5475578761981 0 0)
(1.7274592756066 0.802897053896881 1.61251855831855)
(0 1.13009711890659 -0.0856148027249883)
(1.66938663921683 0.92983246549724 0.59822507843346)
(-1.10113440478912 0.442622351292523 1.32178396204502)
(0 -1.46462630883102 -1.05418220766806)
(0 0 0)
(1.63131343716009 0 0)
(0 -1.02673829367008 -0.197082549761743)
(0 0 0)
(1.81324920372246 0 0)
(0.336879175363792 -0.428704348236932 -1.86333331236303)
(-0.576569476838622 -1.39392693296099 1.8489776989267)
(-0.0633031416250466 0 0)
(-2.00092873192908 1.0995227970496 0.19943402334097)
(1.82532776672105 0 0)
(1.41173336112246 0 0)
(0 -1.95704506703643 -0.571171544493756)
(-2.22926509535409 0 0)
(-1.32968398542201 -3.1498485459402 -0.570156150025611)
(0 -1.21075798409709 -0.825841592244803)
(0.85766924827154 -1.46487878754254 1.0418992815971)
(0.785624857776355 -1.04253163087902 0.171692661106224)
(-1.33934423938161 -1.6807808919667 -0.574733591766564)
(-1.00487743467514 3.70414505604173 -1.34379758173386)
(1.14617063613191 -1.3731598285996 0.792226948659304)
(0 -3.68394664569945 0.29668412010908)
(-0.707540791329074 -1.40177992924908 0.427968233429467)
(0 0 0)
(-1.17021281056665 1.81572195362887 0.380931104804108)
(1.51978009263859 0 0)
(2.2866734007503 -1.17020568335874 -2.31302053063529)
(-1.95107337481625 -2.74729523219154 -1.01923705404812)
(0 3.3717664756541 -0.771361065136292)
(1.13316169630755 0.821019179076724 1.21392025724868)
(0 -0.832758638644493 2.06119437233976)
(0 0 0)
(1.44992573390389 0.482911921328459 1.37249531911944)
(0 0.347350884893473 1.59537206628508)
(1.96443874376214 -0.970252793560572 0.496156281060906)
(0 0.660234259961801 -0.89879261870258)
(0 2.55277477745532 -0.751378558158558)
(0.4392087373591 0 0)
(-1.38782710816395 1.83745987209257 -0.82494209536867)
(-0.712380567106299 0 0)
(-1.39279071777049 1.16539099268164 1.05931384547072)
(0 0 0)
(0 1.4314656934794 0.169207013039331)
(-0.20500715658179 1.35372778921391 -0.554237154321772)
(1.10504223067406 1.77223789022331 1.68289750744116)
(1.39363050696211 0.989566568992799 -2.77854133144027)
(-2.27729882653926 1.93319212439534 1.5106345595718)
(-0.807213981044186 -0.0685032718672191 -1.71299669522876)
(0 1.0783973000899 -0.426972458997092)
(0.862500705004319 0 0)
(2.18907839951358 1.17532265696484 1.61889121287273)
(1.75007455679066 0.200002960470771 1.0750932984608)
(-0.447150815442718 -1.3061156847319 -0.922380815072803)
(0 1.25683337634214 -0.664957493653159)
(-0.896377439852773 0 0)
(-1.93631102103998 3.21310184159173 0.134532440752295)
(-0.131028812804521 0.534846412679803 0.992215163689709)
(0 -2.80439396355892 -0.00880525609670199)
(-1.04179786840844 0 0)
(0.692130505480519 0 0)
(0.659989598850495 -0.974598069201277 -0.381430262739863)
(-1.62985110564768 0 0)
(-0.102273520967144 -0.380191472497165 -2.27827726811531)
(-0.460705837346463 -0.875656031226912 -1.07907031964674)
(0 0.536936668509008 -1.89124692764882)
(0 0 0)
(0 1.42293815002374 1.99517872871601)
(-0.520754152158253 -0.966430253138461 0.426640556135027)
(1.72177637771332 0 0)
(0.796340888799111 0 0)
(-0.392910786833373 0 0)
(0 0 0)
(0 1.14111251959217 -1.85161051569895)
(-1.07581567711547 0.652973253007238 1.78644199293139)
(1.87510728319661 0 0)
(0 -0.0995799201674927 -1.75971243085349)
(0.614817106714824 0 0)
(0.636797790019005 1.47226555565159 -2.95759349411341)
(0.534170462596005 0 0)
(2.75703425183838 -1.05073266273902 0.0730157815737932)
(2.63225600879586 1.08011245021628 0.0831709961871499)
(-1.13109050316004 2.22613137005095 0.887698355199931)
(0.308980766056985 0.936506233964454 -1.31557575841736)
(-1.04132744168395 0.0903365619188275 1.63480358983694)
(0 0.0908162315855982 -3.01300089528251)
(0 0.834650314298944 0.678182182759356)
(-2.45849121585574 0.388103541485128 -1.3603302742788)
(0.0922889695835119 -0.355177832271184 1.95400920516272)
(0 -2.28149286099315 -0.249342923887515)
(-1.30257714783651 0 0)
(-0.931132714498466 0 0)
(-0.903316272708521 -0.71217198071993 1.4814761676208)
(-2.31636847835851 0 0)
(-1.84653991707225 -0.700333315366146 -2.1521209756536)
(0 0 0)
(-1.78094995873548 1.25429695737658 -0.68096711508168)
(0 0 0)
(-0.983946727468614 -2.01582257885324 -0.726979400964268)
(0 -1.84065078149826 -0.874455849022226)
(0 0 0)
(0.510737674997559 -3.66422686856408 1.8446036465678)
(-2.67614245595712 -1.52563501843716 2.93275533170256)
(-1.33561640327235 0 0)
(1.29845450851322 -0.962386013375612 -0.562660861264231)
(0 -0.698749260066078 -0.830259702573863)
(-0.922682984897377 -1.90581185888986 0.392346551696204)
(0.222629826957477 -1.6584084033749 0.44754564540786)
(-0.797180205951907 0 0)
(-2.36371604528736 0.123485449857762 -2.73223982256561)
(1.44525890175862 1.37748079919371 0.440213241967588)
(1.15836762989543 -0.519783356596059 -0.933586979245213)
(-1.1302259566234 2.4786683587942 -2.00602543091228)
(1.12542502250587 0.159578232284121 -1.3655361833912)
(-1.13970011240027 1.57932150855675 0.317077756447606)
(0 0 0)
(-0.154733415917162 0 0)
(0 0 0)
(-1.09415236491774 -0.895858567409848 2.04231662688265)
(0 0.683506263184424 2.37379414348188)
(-1.5045584474821 0.539137300995823 1.00091034173325)
(-1.94183540057456 0 0)
(-1.25997415213238 0.872997988214408 0.699834084394225)
(-2.44700810583999 -1.41965320682257 0.0604514702187743)
(-1.04368011151731 -0.271911481592131 1.0843179386305)
(-0.249588038482695 -1.12191532246123 0.854114015204628)
(0 0.16304681465407 2.75040548928143)
(0 0 0)
(-0.0845327708223425 0.592388790218927 3.07673657509744)
(0 0.627738201210622 1.89568247194521)
(-0.733993984886679 0.760695854683496 0.838522360173921)
(-0.936701072930546 0 0)
(0 1.1785974292814 -2.41607433958175)
(1.65906909531308 0.938797076875259 -1.34092860458979)
(1.64011887581642 -1.5944845914028 0.710495135785994)
(0 0 0)
(-3.68198485026559 0 0)
(0 2.43710003647064 -0.421237428862295)
(0 -1.33956730072623 0.966406046242706)
(1.12666175253612 0.704081232072568 -1.88843461746422)
(1.57475831179834 2.29263167277325 1.90868829547501)
(0.785887855524561 0 0)
(0 1.38830733540813 1.03118751684673)
(0 -1.91267207071796 -0.650539274876142)
(1.5929237820576 0 0)
(-0.363214909509337 0.743080084703966 -0.854128948069829)
(0 1.07459802232171 -0.0941145744756142)
(1.18380017691068 -0.0537570130362892 -1.98263850349457)
(-0.476458059690617 -0.942710282888003 -0.477305682254766)
(-0.784087395780067 1.37316800541103 -0.186609436811653)
(-3.7424498945014 2.41676295536757 1.17029212069089)
(0.56257924162422 0 0)
(0 0.669446455586513 3.42080373464023)
(-0.583932082352944 -1.45372074662113 -0.0383127593827025)
(1.90340726938326 0 0)
(0 -0.0738775005285511 -2.03468996336875)
(0 -2.40016442590858 0.231270859326556)
(0 2.37812520856706 1.57621812921835)
(-2.18084376565083 -2.03978757228288 0.867078337495651)
(1.045951901971 0 0)
(0.0169578061289005 -2.14210637967206 -0.527940110012659)
(0 1.47983951315676 1.47588153151925)
(0.416941677356732 0 0)
(0 0 0)
(-0.529182302834939 0 0)
(0.435131944733612 -1.56281137096278 0.0916241304610436)
(0 -1.50552340586147 1.73550732543832)
(0.536198622886782 0 0)
(2.18247567510737 -0.000202375033129563 -4.90400925440709)
(-0.852210605007005 1.14340396861456 0.888331167381807)
(-0.641979907720433 0 0)
(-0.454282965443516 -0.967695670650791 1.99840148086898)
(-0.564632030483011 0 0)
(-1.0694644884563 0 0)
(-1.3445376674952 0 0)
(0 0.119294635154653 1.36492655699803)
(1.16600127221226 -2.19908275409147 -0.87173991805178)
(-3.07136504844194 -0.936191901467563 -1.71174222544648)
(-0.288276508023301 -1.77211987364558 -0.299353536381601)
(0.695682175841554 1.04451144542814 -0.99133981392396)
(-2.27096667213454 -1.41330371024232 -0.0660331021153327)
(2.60049761858633 -1.38260292544696 -2.09114910434443)
(-0.0862307647225226 -2.69769929343837 -3.27334210497733)
(2.41845541786145 2.08986490866572 -0.677661136676143)
(0 0 0)
(0 0 0)
(-1.31689939859418 1.02562185089623 -3.01718955145819)
(1.27934221186581 2.18957680715586 0.385044766508415)
(0 0 0)
(0 0 0)
(-0.493528370818632 0 0)
(0 2.01151943955463 -0.384510530164444)
(0 0 0)
(0 0 0)
(2.77029343287839 0 0)
(-1.81070936718396 0 0)
(-1.08617744971184 0 0)
(1.66577217360298 -0.0201753696236224 1.8712644324002)
(0 0.464817043717056 -0.98635378403815)
(0 1.31924341780178 -0.507496480877233)
(-1.6375526295111 -1.02038803507411 0.987179954243053)
(0 -0.502695512302287 2.3655624815618)
(1.42920748743618 0.962939677423189 -0.549269870114566)
(2.06059621883195 0 0)
(-0.728995467053379 -2.90100031388106 -0.871572203859534)
(1.99879298010678 -1.25145947727136 1.63925053099221)
(0 0 0)
(1.01747723981304 -0.627500522181698 -2.06336620506361)
(0.89996401540636 0.119949718887637 -2.62558853456283)
(0.912873719805431 -0.697156056500261 -2.27474686691977)
(-1.2709215878969 -1.04941729655593 -0.316414355813418)
(1.31255081801381 0.301980385341507 3.86535454033825)
(0.556537863958284 -0.234588480231852 1.06418557725672)
(0 -0.790198271327857 -0.803997971394718)
(0 -2.21913614422699 -1.26439900334181)
(-1.6386182446453 -0.955368075900648 0.516918539184802)
(0.848980529141549 2.31248183419236 0.361553965661282)
(0 1.40921286514511 -0.0651115252850021)
(0.959361800156192 -1.9895607258586 0.704720426622199)
(0 -0.977923724231744 -0.621154964951043)
(1.28906106051563 3.09182798805878 1.68908011306212)
(-0.644810501578594 0 0)
(-1.59263671817635 -0.596446209316622 -1.48169637604573)
(1.22543290691623 -0.378996790141329 -2.35452934340974)
(-0.884410745435927 -2.11381169713378 -2.20194135245104)
(-1.3899649258724 -1.69390491360678 -1.52035992791216)
(-0.433310421403383 0 0)
(-0.552953320352328 -1.01405679220578 -0.382443477262299)
(-2.26962077966725 0.775700368043629 -1.66537830295491)
(0 0 0)
(1.0502067785907 -0.0283257354335175 -1.04163523211497)
(-0.6167551937573 2.41132308083809 -0.930726738001394)
(-1.7549607784933 0 0)
(3.48488672311548 0.307757596258639 -1.03136853456653)
(-0.459079844505667 0 0)
(0.282105316255229 2.19366564571015 1.22181008404709)
(1.67116138411445 -0.569433259986937 -2.39908554610344)
(0 -0.665269533992241 2.78755956818593)
(0 0 0)
(-0.0764362659013903 -1.86349581723995 1.1259420816549)
(0.527902493651935 1.31684875605933 -0.558105908608218)
(0.093229319572271 -1.88127667476949 1.64677728501934)
(0.76351468535182 -3.22771419009549 -1.23127457871296)
(1.82611716719655 0.626372794835934 -1.21250470756981)
(0 0 0)
(0 -0.911492601014265 2.1967848848569)
(0.78890986120157 2.61344861536047 1.56500324130394)
(1.03694929832263 -2.18947509862883 -1.0757587063511)
(1.5506913662113 -1.92037739967392 -1.30328030710905)
(0.851610592725886 0.418603027670971 1.31096182446038)
(-2.25440130170078 0 0)
(-1.69023500459212 -1.30827876880208 -1.74883841698369)
(0 0.873888362030528 3.74800341553271)
(0 0 0)
(0 0.698629844831508 -2.16701038652323)
(1.35902925687186 0 0)
(-0.869794839675253 0.969775625055823 0.423239116776629)
(0 -1.07950882074533 0.245731640623881)
(1.6247711836426 0 0)
(1.25684475000967 3.61942224317487 -1.74854532414342)
(0.603379786547884 1.28921280021833 -1.66759114078196)
(-1.05368897240649 -0.0435754202171351 -1.37728996501429)
(-0.652149042747912 -1.01869435071721 2.53068473424251)
(2.30274745293234 0.991681527685545 2.93694135833958)
(0 -1.97746160149553 -0.218363437504438)
(-4.1352414655667 3.03750579726322 -1.00869514301772)
(0 2.90523466130745 -1.49482516475702)
(1.85856411111153 3.61625001809939 -2.15709392082739)
(0 1.00873017400442 -0.533222107372167)
(0 0.960222973735285 -1.49095918211477)
(0 -0.718237331701134 1.27681824580893)
(2.38433315278907 -0.852467654433825 -0.715634934454731)
(0 1.87994003190364 0.253003474794415)
(0 0 0)
(-0.958671212991345 0.348757273277101 -1.08242815303612)
(-0.477127933710248 -1.58512747741297 1.52621758627101)
(-0.945062356484207 0 0)
(-1.56678127895547 0 0)
(-1.75993703818702 -1.37861276336371 0.349093456205073)
(-2.65518426286338 -0.862120839647391 -1.86044465665836)
(1.36590826179757 0 0)
(-0.845647497833393 -2.82254902761927 0.918257062585501)
(1.55097454772947 -3.46137632279465 2.63410767021676)
(-1.17181132347314 -0.110893270404009 -1.94201045458681)
(-1.00146850038907 -1.11599477757462 -0.25897330627916)
(1.01211147242587 -2.13960053896176 1.73534658885676)
(0 3.54410440372086 -0.373077719046979)
(0 0.878813581445746 -1.1549285495181)
(0 2.63973296277647 1.56599681707492)
(-1.48174405432423 0 0)
(1.40765299196401 0.832730892817879 -1.60078003117502)
(0 -1.50822112330692 2.17673924925989)
(1.90926956480703 0 0)
(-2.12593725666793 0 0)
(0 0 0)
(0.446080980917421 -2.28578476830451 0.448093956676563)
(-1.07995082409005 1.11090856804646 -0.0487889573272391)
(3.3825235122192 3.72131267819675 -0.340463462888669)
(-0.455679853311485 -1.56554575458473 0.808571445875341)
(0 -0.0793149081964211 1.7720779093898)
(0.777148025554455 -2.55787693109741 -0.40787914279395)
(0.11792212594437 2.2380452864394 -0.344013944243944)
(2.96939630083215 -1.03121635198299 1.30191096825793)
(1.00330119110679 -1.45746488961332 1.23132220762964)
(-1.05477056985473 1.81312008997173 -0.597351194610591)
(0.317579365530565 -0.326416008670152 2.34415985545908)
(-1.67418187368675 -1.79015736056595 -0.45603711460454)
(0 1.43208472073566 -0.804808384601748)
(1.13286925392165 1.13940230094227 -1.3161194872129)
(0.468973182578777 2.238359220612 0.484178708701421)
(1.02748252594547 -1.12004303724776 -0.239640891591219)
(1.08553760775697 1.00265328335478 0.581433289564923)
(0 0.0889992525260818 2.25936118813993)
(0 0 0)
(0.988665903082201 -1.3815016580432 -1.7226325517824)
(-1.92941712778718 0.627995040722443 1.4668925547064)
(0.776647318792836 0 0)
(-1.83342622203992 0.314681611493153 2.8181218847002)
(-0.184005406665539 2.00425023777067 -1.66452374608562)
(0 1.87547848211804 -0.193169276798368)
(-0.0703313009456045 0 0)
(0 -0.460271980143407 -1.39187744798122)
(0.876291224182317 0.886252996797361 1.13279771023661)
(-1.11927769142434 0 0)
(0.321626617874586 -1.22922973122839 -0.672157888885289)
(-1.51605628086225 -1.14099131406596 1.15693475350416)
(-2.3886187706226 0.567350311513458 -1.29847560014924)
(-3.80362724090334 0 0)
(0 0 0)
(0 -0.874316429022377 -3.35988162535366)
(-1.43304035606596 -0.627784737569556 -0.951693128030828)
(0 0 0)
(0 0.789398835505619 2.34941762445635)
(-0.107519710040384 -0.00666124116783898 1.96348958220525)
(3.68834058061813 -1.92346998821819 1.3345247464458)
(0 -0.337402283505917 -2.106321073016)
(-3.44433118529347 1.36304070835385 -1.43769308788819)
(1.29943283124847 0 0)
(1.82452097134733 0 0)
(0.531215801263877 3.21794902951321 -2.59645925396302)
(2.75902331873266 1.62688604850377 1.19997610763547)
(0 -0.758209819171058 1.79105176064408)
(0.474054591406385 0 0)
(0 2.30731682597208 -1.55005241753214)
(-2.02673639174659 0 0)
(0 0.671742163298021 -1.23466885518877)
(0 -0.292997018077517 1.63045846136929)
(0.889459358495447 0 0)
(0 2.63708884251563 -0.11751837314888)
(-1.46321180614707 0.0620164737519005 -1.40228458882624)
(0.608176506562232 -1.46898360415307 0.676325820151796)
(0 0 0)
(1.35025254888269 0 0)
(0 0 0)
(-0.0584002141558144 -2.02433567607276 0.692066822448917)
(0.692569293602737 0 0)
(-1.05877782644294 0 0)
(-0.932479073932171 1.35483466827002 -0.229197101743167)
(0.213703954512163 0 0)
(-1.68312039001617 1.25717313316597 -1.62810941111287)
(1.80070656865868 0 0)
(-0.0103932061890674 0.947638835384332 -1.64343983494913)
(0 0 0)
(-1.61984710261786 -0.359968955908359 3.07203549481556)
(0.541384203028551 0 0)
(0 -0.186971072287678 1.08249847698591)
(-1.07962490596232 0 0)
(1.06175266441807 1.7803461033519 -0.809769267945652)
(1.45845943523787 -0.284576028719698 -4.36591679294454)
(1.35100920337745 -0.778217597360808 1.13287398414288)
(0 1.3696135320521 -0.179594487752714)
(-0.83080832734474 0.000716570613953679 -2.07789211758024)
(-1.02574985313322 -0.556227318358406 3.34892861853556)
(0 0 0)
(0 -1.5663037806349 -1.66896182335601)
(0 0 0)
(0 -0.938414784156357 2.18453925030917)
(0 -0.698040146603092 -0.828397120949288)
(1.51851527445906 -1.9892125872247 1.54283327867525)
(-3.38429545132418 0 0)
(-1.4013070910101 -1.06587797108327 -0.41175721194445)
(-3.12078235351504 -2.15145993112071 1.50059983798983)
(1.7740588412962 0.753998318031532 1.19398052531667)
(2.22173457317789 2.20026492322895 -0.795449221924672)
(-1.24754708109627 -3.18330319480618 1.93457317048934)
(0.446787274642458 -1.22138895103194 1.28573959243991)
(0.687641634650236 0.66739410413518 0.878325003253064)
(2.70290815377451 0 0)
(-1.29289659369301 0 0)
(0 -1.09906805307325 2.1980301995485)
(-0.121850475829251 0.0789188909863664 1.12589980173308)
(0.880302464265672 0.953713256639384 -0.560125776994231)
(0.17614758624216 -1.03621184745778 -0.270752287635249)
(-0.920310318762285 -2.51903081992836 0.94086332976464)
(-1.40906134500777 0 0)
(1.04034080811836 0 0)
(-0.487862473201362 1.96117966099107 -1.13780918906442)
(-1.54707093766457 0.428993760975899 -1.58099271456016)
(0 1.19165154789448 -2.35829555020414)
(1.53495451016032 0.327086755899239 -1.82049905613335)
(-0.676315607677285 0.97927279581646 -0.375256957376557)
(0 0.981583133602187 -0.489219544485298)
(0 -0.0622671869722874 1.07757869947421)
(0 -1.02225269610329 0.43195874927441)
(0 0.470305414347004 -0.987226886649039)
(-0.935246346674204 0 0)
(0 0 0)
(-2.45165774988994 -0.974186382729053 1.04994939412168)
(0.918381280767934 0 0)
(0.23429097083981 -1.10030566965798 1.2231491278537)
(1.81829443754659 2.04527641550906 -0.789081225872644)
(-0.511164273392754 2.44597094057705 -2.05140310427857)
(0 -1.50636665777858 -0.585193024550331)
(0 0 0)
(0 -1.14506412503013 0.910057942638374)
(0 0 0)
(-0.195403443542498 -1.13736354911174 -1.97500839185366)
(0.426658220726907 0.954184471296238 0.574061302356766)
(1.9509642682408 -0.598882352287765 4.01240699405062)
(-1.21294999066235 1.6063349827905 -1.14407114313655)
(0 0 0)
(0.918475555518809 -0.784596360779887 -1.58869951016386)
(-1.11013441495083 -1.38460995321258 0.219958176127994)
(-0.583168606241242 0 0)
(-0.740932768884754 -0.457482415905908 -1.01425223586324)
(0 -2.88178655145624 -0.254827563258607)
(-2.56175648842692 -1.94608885804935 0.644752082779051)
(0 -1.09813893583968 -1.68136747738851)
(0 -1.65978429591131 0.0982474641128953)
(1.34173687518673 -0.278943060475166 1.58237513188502)
(0 0.0652657437600904 -2.03629480269821)
(0 2.54371331838564 2.28785720848499)
(0 -0.190300470215382 -1.04948843608368)
(2.52329130151853 0 0)
(-1.34185271614831 0.136336046110449 1.37706154962807)
(-1.01955085633496 -0.402994569735737 1.5318252252401)
(-1.33083653953804 0.578944313150537 -0.949925567035652)
(0 0 0)
(-3.10238776611339 -1.08044082912004 -1.59659611333133)
(0 0 0)
(-1.59320261367202 0 0)
(0 -1.16838579467884 -1.05742285728391)
(0 -1.12944882288271 1.08616697032998)
(0 0 0)
(1.38786953118129 0 0)
(0 0 0)
(1.79863280660921 0 0)
(4.01925921110964 0 0)
(2.50917441229706 0 0)
(0 -2.18667195481181 -2.31871460677609)
(-1.70932934842142 0.319040338750526 -2.53390286743354)
(-1.10070893208258 0 0)
(0 -1.29916321443827 1.15139644799645)
(0.240143951152766 0 0)
(0 0.319873318541898 -1.10036539859119)
(-3.98683318214883 3.4050225800315 0.380149044645177)
(-0.87713368055684 1.26658445566277 2.01001768023326)
(-2.11283837401215 0 0)
(1.40957102475836 -0.654775122134007 1.26357184069042)
(-0.559514228579201 -0.160627896328315 -1.60337557224096)
(-0.324930320010048 0 0)
(0.930447482137133 -1.83696321339376 1.96366178239594)
(-1.11205332511399 0 0)
(0.238540373961206 0 0)
(0 1.02043232859022 2.05301180656351)
(-1.97931476214947 0.175207924482073 1.05491488592245)
(-0.664910336854541 -1.70642963240357 -1.14915226965061)
(1.10916900856098 0.691724988655547 -0.882511207693804)
(-3.51461652665703 0 0)
(-1.01771158769842 0 0)
(-2.21893927845345 0 0)
(-0.631101493394782 0 0)
(0 -0.247158845736355 -1.94138296231239)
(0.913528402551685 0 0)
(-1.13109755346424 0 0)
(-1.33176096302476 0 0)
(1.30260840581279 1.50447633144893 0.948646168097956)
(2.04472822449019 -0.615178341337904 2.1661851229128)
(-1.87709858234973 0 0)
(1.84288669375486 -1.09055517455492 -1.61577423711539)
(0 -0.585612570533622 -2.15542811827482)
(0 0 0)
(2.28920998078159 0.222389297806302 1.85756596181951)
(1.11066366403128 2.79971976937552 -1.05498592624087)
(0.942637349164699 0.461787404830318 -0.98052643189642)
(-2.34235901931943 0 0)
(-2.68604520056187 1.89417607776772 2.2895403106478)
(-1.3416422197369 0 0)
(-1.37846031989328 0 0)
(1.5680434544941 0.851421130058621 -0.762193468395465)
(1.03375552365223 -1.49839917257938 2.25983462841803)
(0.116487857783521 0 0)
(0.649054881724208 0.403150290718378 -1.59542363258362)
(0 0 0)
(-1.51848964916189 -1.36965044818542 0.290099059026675)
(-0.860372885614188 0 0)
(1.21519763754439 0.256410450308949 -2.28979575141178)
(0.167494414162512 0 0)
(0.0788961952428732 -2.13299065310155 0.493991520718596)
(0 -0.052488512259136 -1.58943222543132)
(-0.4006987157591 0.623132874194128 -2.58568290976649)
(0 0 0)
(-1.45074036850031 1.28552473910736 0.712092010856484)
(0 -0.457322112964201 0.957623275205376)
(0 0 0)
(0 -2.86970041133183 0.32719001319201)
(1.09474936129224 0.81886396382963 1.20324472919036)
(0 0 0)
(-0.471804721059651 -1.62740400481646 1.36377020103046)
(1.72153102918335 2.17822462898779 -0.420060528741945)
(0 0 0)
(-1.67662845090707 0 0)
(0 0 0)
(0.370835704787219 0.718836457361257 1.59397808270669)
(2.26346989910726 0 0)
(-1.27401389615426 0 0)
(0.482852588962964 1.77049523268273 -2.61943860861162)
(0.0536050804214541 -0.0818599153315079 1.14288554869608)
(-1.10588518250085 1.88026148716741 0.721151039538187)
(0.569726577141299 1.33543033650333 -2.32210595887897)
(0.327035429068544 0 0)
(-3.25670971747749 1.09636673578613 -2.81615484017557)
(0.421897530184801 -1.09013881253219 -0.147620718076221)
(1.95728677438871 0.521658562362756 1.57305389019846)
(-2.26053660286125 -1.98538905590714 1.15177201445278)
(0 0.528453124733927 -1.3168810166783)
(0 0 0)
(1.53605562327793 0 0)
(1.007916417896 -2.35156060212557 0.264617667172952)
(0 0.436773710201101 3.09762530849914)
(0.407888985173741 -1.35557125268036 -1.07546601178709)
(1.5934089004554 -2.33166559619867 -0.483151132690499)
(0 -3.22417355391698 1.55204074012893)
(0 -1.59527567098212 -0.0522104956636363)
(0 0.360320142498315 1.42050971395709)
(2.54591260892676 2.64743329938307 -1.44139786364664)
(0 0 0)
(-2.52814221814527 0 0)
(-3.2446450889779 0 0)
(1.00570141437184 0 0)
(0.941374933112438 0 0)
(-0.733463177307832 0 0)
(0.0499886891443813 -1.5226097184933 3.66666308560797)
(-1.00301458567612 3.70965398579836 -1.19052934099401)
(-2.46663478656956 -3.83756775699971 0.196905399375554)
(-0.468861389131393 1.24342668122697 -0.599163840766364)
(-0.12414395172378 -1.99908804701878 -1.75514339888911)
(-1.9095010573702 -2.39352521599867 0.189563062848834)
(-0.474373272829173 2.15642419471684 0.446972503660722)
(0 -2.0445232165466 -1.78492378109676)
(-0.578935042876655 0 0)
(0 1.63437210741474 -0.656775878960723)
(0 -0.99587545946286 -1.24767482221119)
(-1.8525683798872 0.712691723639155 -0.764261683892392)
(-0.849544206054055 -1.76770668433636 -1.30193531322092)
(0 -2.36361786763267 -1.6197258098894)
(0 0.429605505273458 -1.98227419545544)
(0 0.717955182221218 -1.61412880811295)
(-2.19466750271971 0 0)
(1.19064327405683 0 0)
(-1.39425453370215 0 0)
(-1.49236675885535 0 0)
(0 1.05782800152506 0.0139557221906423)
(0 -1.10607230791854 2.56239351248692)
(1.97625942019729 -0.0861788045702762 1.44278928188943)
(2.34737060718626 -1.43366890651813 0.792453041895295)
(1.35014537365831 0 0)
(0 -0.556769011465759 -0.953936173549103)
(1.59192008565724 0.254425957315587 2.41888532498054)
(-4.64186001779599 1.24236417259349 0.598190898398109)
(2.38737959055922 -1.59982329734166 -1.50119957977378)
(-0.107165052166917 0.683703787224539 -0.898967067347824)
(0 0 0)
(0.337774773468189 2.49797916592131 -0.695766640115133)
(1.41103073521892 -0.313101902565777 1.36185701513257)
(0 0.888969229878946 -1.7500830780325)
(-0.117824742329451 1.14227775050086 1.36258344761041)
(-0.442872408412541 1.61381717455446 -1.53389408497464)
(0 -1.40884181245225 -0.139568162909932)
(3.92247340287356 1.25379486875468 1.89752027193965)
(0.191931438599387 -1.38560599645792 0.908308375102143)
(0 1.88256259571312 -0.288714740900749)
(1.32877994985827 1.41297098400298 -0.40425605167273)
(2.2071160681059 0 0)
(1.29764546058923 1.35100824004612 1.74148396858167)
(0 -1.51739782542265 -0.979444733950424)
(-2.33076233743168 0 0)
(-0.296944267930464 -1.0386216934843 0.505847926577551)
(0 1.62327747713196 0.68920033875845)
(1.54341832923682 0 0)
(-1.60006887160637 0 0)
(-0.766648090244521 0.666063809674463 1.22678055532618)
(-0.800026924897421 -2.08653955784002 2.81166738273121)
(-1.82439881422036 0.602142381154197 1.64839200064441)
(0 -0.258184360232434 1.10001164777441)
(0.930966721193367 0 0)
(-1.0708966996179 0.620305560484353 0.906986077154667)
(-0.872277891506153 -2.08961876568804 -1.31163445105702)
(0.430281892866548 -2.00787049014711 0.222714505060475)
(0 0 0)
(2.92260600456249 -1.80437327733461 -0.616949312324283)
(0.471653017118346 2.15048853792349 0.134754317488359)
(0 -2.87716037564628 -1.28729197459589)
(2.55140102260486 0 0)
(0.623127139292877 0.623251039236106 -1.98738442322696)
(0.175062030728408 1.1324142789439 0.0154257093268537)
(-1.45224806624455 0.00546752565643101 3.27617240675993)
(-0.739012727880103 -0.81619807700631 0.702032892861289)
(-0.888180181125367 -3.4212279813565 -1.69424437907347)
(0 0.476525471158598 2.45549300236991)
(0.273782818681526 -2.74233899039972 0.770163038797009)
(1.65051734267412 -0.803719672490204 0.697327029979445)
(1.35675221176577 0 0)
(-1.00349871429477 1.28684777068803 -0.555470982238923)
(0 -1.35300017514152 -0.389165098972428)
(0 -2.29103411722612 0.990611069005748)
(0 0.462175017100843 1.55908218382151)
(0.662289173034447 0 0)
(1.28835993276674 -1.31343899783985 1.58125799728643)
(0 3.38256837313367 0.699202190491621)
(1.11716815588802 0 0)
(-1.15464045464378 0.729657766599586 0.795051167582165)
(1.09682881015174 0.169160409518107 -3.56467554731714)
(-1.82662287733374 0 0)
(1.43499223750905 1.62269091870398 1.77338324101961)
(0 -2.34669974177508 0.760964808723999)
(0 1.20710156096791 -1.50208710726382)
(-1.35497346637168 3.20744745808901 0.113891129742249)
(0.235578842543321 1.44138090120559 -0.672530670460121)
(0 0.435309363824771 1.05350507761629)
(1.78443077030385 0 0)
(0 4.55605009391004 0.243502596069319)
(-2.20773554638438 -0.686258524642141 -1.7052039901127)
(0 -0.84053886517704 -1.16309437452136)
(0.617172159054115 -2.93482529820604 0.106911635812237)
(0 1.56641279945839 0.502070217792932)
(-0.258584213707374 0 0)
(0 -2.67719911549468 1.2657399541347)
(-1.30307014638895 -1.52220521386087 1.13453198300977)
(3.53682918573806 -0.81920633692786 -0.77419836870966)
(0 1.16941154853059 -0.800170546797082)
(-1.04103950495464 -0.991440170052981 -4.36082810247686)
(0 -3.05748339076599 -0.16054193322847)
(0.639074032007965 1.4418015111158 -0.00986539658851952)
(-1.97568148804798 1.00124006199018 -0.582713013831897)
(0 2.96382000111067 -2.06073756572639)
(0 1.20070961864245 3.32934291756608)
(0 -3.52990651503099 -0.147486181572507)
(1.01746381047813 -1.03319963591289 -0.326177051955946)
(0 0.209960133823013 1.45692100913419)
(0.738470506404082 0.977560998354125 1.04056503060278)
(-1.83535649836142 -0.244947659741909 -1.3971861009243)
(0 -1.57259196712023 0.548633951592045)
(0 0 0)
(-1.396931998679 -2.19358314310856 0.095245930447149)
(0 0.781709368796198 -0.717502921054836)
(0.858429366862273 0.951828180266831 0.624448366643624)
(-0.871981462419717 0 0)
(-0.221689467477573 0.746339601624368 3.0185003892783)
(-1.77298727925085 0 0)
(0 -0.153331581721502 -1.11667621678984)
(0.14009344085606 0 0)
(0 -2.70265386142111 -0.520233494363232)
(0 0.205689095869842 -1.72134574482387)
(-0.66426296164004 1.20450141345276 1.67577755675619)
(2.36420369014023 0 0)
(-1.49969180590756 0 0)
(0 -0.493962261054284 1.69090992691432)
(2.05497037201856 1.22727977405566 -0.709183201762627)
(-0.232633613320678 2.0801210339493 2.14194467729142)
(-1.56532449394263 0 0)
(-0.162830163960253 -1.84446696015984 -0.0141772491145788)
(1.76914429224473 -1.05395148744091 -0.983570970368603)
(-1.07069863435876 0 0)
(1.69696821259455 0 0)
(0 -0.154397582046672 1.10186677710376)
(-2.07212630967935 0 0)
(-0.791711074373919 0.961597295381489 -0.494421796712165)
(0 0 0)
(0.246947730484078 0.0547358879684666 -2.13533356058814)
(0 0 0)
(0 -1.36252881548349 -1.17382825345676)
(-0.314337501893115 0 0)
(-0.175257389454441 0 0)
(-1.81623766255979 0 0)
(2.11672088347581 -1.34204795865265 1.40032103982104)
(-0.331593916646089 0 0)
(0 -2.55053007438406 -2.83348868906001)
(0 -1.24210297546223 0.596755706275157)
(-1.20205582486674 0.604470677056683 -1.3426707695423)
(0 0 0)
(0.598933642379864 0 0)
(0 -0.934947604850921 -1.4550818564525)
(0 1.9815486904361 3.64232601911889)
(1.44592207862005 -0.107994859108307 2.08108196454934)