/*---------------------------------------------------------------------------*\
| =========                 |                                                 |
| \\      /  F ield         | OpenFOAM: The Open Source CFD Toolbox           |
|  \\    /   O peration     | Version:  2.4.0-MNF                             |
|   \\  /    A nd           | Web:      http://www.openfoam.org               |
|    \\/     M anipulation  |                                                 |
\*---------------------------------------------------------------------------*/
FoamFile
{
    version     2.0;
    format      ascii;
    class       dictionary;
    location    "system";
    object      boundariesDict;
}
// * * * * * * * * * * * * * * * * * * * * * * * * * * * * * * * * * * * * * //

dsmcPatchBoundaries
(
    boundary
    {
	boundaryModel  dsmcCouplingPatch;

        patchBoundaryProperties
        {
            patchName	couplingX_left_middle;
        }      

        dsmcCouplingPatchProperties
        {
	    typeIds	(Ar); 	
	}

	dsmcCouplingPatchSending
	{
	    sendingInterfaces	(ifs_1);
	}

	dsmcCouplingPatchReceiving
	{
	    receivingInterfaces	(ifs_1);
	}
    }

    boundary
    {
	boundaryModel  dsmcCouplingPatch;

        patchBoundaryProperties
        {
            patchName	couplingX_right_middle;
        }      

        dsmcCouplingPatchProperties
        {
	    typeIds	(Ar);
	}

	dsmcCouplingPatchSending
	{
	    sendingInterfaces	(ifs_2);
	}

	dsmcCouplingPatchReceiving
	{
	    receivingInterfaces	(ifs_2);
	}
    }   
);

dsmcCyclicBoundaries
(
);

dsmcGeneralBoundaries
(
);

// ************************************************************************* //
