/*---------------------------------------------------------------------------*\
| =========                 |                                                 |
| \\      /  F ield         | OpenFOAM: The Open Source CFD Toolbox           |
|  \\    /   O peration     | Version:  2.4.0-MNF                             |
|   \\  /    A nd           | Web:      http://www.openfoam.org               |
|    \\/     M anipulation  |                                                 |
\*---------------------------------------------------------------------------*/
FoamFile
{
    version     2.0;
    format      ascii;
    class       dictionary;
    location    "system";
    object      boundariesDict;
}
// * * * * * * * * * * * * * * * * * * * * * * * * * * * * * * * * * * * * * //

dsmcPatchBoundaries
(
    boundary
    {
        patchBoundaryProperties
        {
            patchName	couplingX_middle_left;
        }
        
        boundaryModel	dsmcSpecularWallPatch;

        dsmcSpecularWallPatchProperties
        {
        }
    }

    boundary
    {
        patchBoundaryProperties
        {
            patchName	couplingX_middle_right;
        }
        
        boundaryModel	dsmcSpecularWallPatch;

        dsmcSpecularWallPatchProperties
        {
        }
    }
);

dsmcCyclicBoundaries
(
);

dsmcGeneralBoundaries
(
);

// ************************************************************************* //
