/*--------------------------------*- C++ -*----------------------------------*\
| =========                 |                                                 |
| \\      /  F ield         | OpenFOAM: The Open Source CFD Toolbox           |
|  \\    /   O peration     | Version:  2.4.0-MNF                             |
|   \\  /    A nd           | Web:      www.OpenFOAM.com                      |
|    \\/     M anipulation  |                                                 |
\*---------------------------------------------------------------------------*/
FoamFile
{
    version     2.0;
    format      ascii;
    class       dictionary;
    location    "system";
    object      controlDict;
}

// * * * * * * * * * * * * * * * * * * * * * * * * * * * * * * * * * * * * * //

application     	dsmcFoamPlus;

nTerminalOutputs    	1;

startFrom       	startTime;

stopAt          	endTime;

startTime       	0;

endTime         	1.0e-9; //1ns

deltaT          	2.0e-15; //2fs (500,000 time-steps)

writeControl    	runTime;

writeInterval   	1.0e-12; //1ps

purgeWrite      	1000; //Keep 1000 time outputs

writeFormat     	ascii;

writePrecision  	12;

writeCompression 	uncompressed;

timeFormat      	general;

timePrecision   	8;

runTimeModifiable 	yes;

adjustTimeStep  	no;

// ************************************************************************* //
