/*--------------------------------*- C++ -*----------------------------------*\
| =========                 |                                                 |
| \\      /  F ield         | OpenFOAM: The Open Source CFD Toolbox           |
|  \\    /   O peration     | Version:  2.4.0-MNF                             |
|   \\  /    A nd           | Web:      www.OpenFOAM.com                      |
|    \\/     M anipulation  |                                                 |
\*---------------------------------------------------------------------------*/
FoamFile
{
    version     2.0;
    format      ascii;
    class       dictionary;
    location    "system";
    object      controllersDict;
}

// * * * * * * * * * * * * * * * * * * * * * * * * * * * * * * * * * * * * * //

dsmcStateControllers
(
);

dsmcFluxControllers
(
);

dsmcCouplingControllers
(
    controller
    {
 	zoneNames                   (couplingZoneLeft);
        couplingControllerModel     dsmcMdCoupling;

        dsmcMdCouplingProperties
        { 	   
            molIds	(Ar);            
        }

	dsmcMdCouplingSending
	{
	    sendingInterfaces	(ifs_1);
	}

	dsmcMdCouplingReceiving
	{
	    receivingInterfaces	(ifs_1);
	}
    }

    controller
    {
 	zoneNames                   (couplingZoneRight);
        couplingControllerModel     dsmcMdCoupling;

        dsmcMdCouplingProperties
        { 	   
            molIds	(Ar);            
        }

	dsmcMdCouplingSending
	{
	    sendingInterfaces	(ifs_2);
	}

	dsmcMdCouplingReceiving
	{
	    receivingInterfaces	(ifs_2);
	}
    }
);    

// ************************************************************************* //
