/*---------------------------------------------------------------------------*\
| =========                 |                                                 |
| \\      /  F ield         | OpenFOAM: The Open Source CFD Toolbox           |
|  \\    /   O peration     | Version:  2.4.0-MNF                             |
|   \\  /    A nd           | Web:      http://www.openfoam.org               |
|    \\/     M anipulation  |                                                 |
\*---------------------------------------------------------------------------*/

FoamFile
{
    version     2.0;
    format      ascii;
    class       dictionary;
    location    "system";
    object      couplingDict;
}

// * * * * * * * * * * * * * * * * * * * * * * * * * * * * * * * * * * * * * //

couplingName dsmcDomain; //Coupling domain name

couplingConfigurations
( 
    OneDInterfaces //1D coupling interfaces
    {
	
    }

    TwoDInterfaces //2D coupling interfaces
    {
        
    }

    ThreeDInterfaces //3D coupling interfaces
    {
	ifs_1
	{
	    zone	dsmcZoneLeft;
	    sending	yes;
	    receiving	yes;
	    smart_send	yes;
	}

	ifs_2
	{
	    zone	dsmcZoneRight;
	    sending	yes;
	    receiving	yes;
	    smart_send	yes;
	}
    }
);

// ************************************************************************* //
