/*--------------------------------*- C++ -*----------------------------------*\
| =========                 |                                                 |
| \\      /  F ield         | OpenFOAM: The Open Source CFD Toolbox           |
|  \\    /   O peration     | Version:  1.6                                   |
|   \\  /    A nd           | Web:      http://www.OpenFOAM.org               |
|    \\/     M anipulation  |                                                 |
\*---------------------------------------------------------------------------*/
FoamFile
{
    version     2.0;
    format      ascii;
    class       dictionary;
    object      reducedUnitsDict;
}
// * * * * * * * * * * * * * * * * * * * * * * * * * * * * * * * * * * * * * //

// reducedUnits	yes;
// outputSI	yes;
// 
// refLength	0.34e-9;
// refTime		2.16059e-12;
// refMass		6.6904e-26;
// refCharge	1.602176487e-19;

reducedUnits	yes;
outputSI	yes;

refLength	3.154e-10;
refTime		1.66e-12;
refMass		2.987e-26;
refCharge	1.602176487e-19;

// ************************************************************************* //

