/*---------------------------------------------------------------------------*\
| =========                 |                                                 |
| \\      /  F ield         | OpenFOAM: The Open Source CFD Toolbox           |
|  \\    /   O peration     | Version:  1.3                                   |
|   \\  /    A nd           | Web:      http://www.openfoam.org               |
|    \\/     M anipulation  |                                                 |
\*---------------------------------------------------------------------------*/

FoamFile
{
    version         2.0;
    format          ascii;

    root            "";
    case            "";
    instance        "";
    local           "";

    class          dictionary;
    object          boundariesDict;
}

// * * * * * * * * * * * * * * * * * * * * * * * * * * * * * * * * * * * * * //


polyPatchBoundaries
(

//    boundary
//      {
//          patchBoundaryProperties
//          {
//              patchName      topWall;
//          }
//          
//          boundaryModel  polySpecularPatch;
// 
//          polySpecularPatchProperties
//          {
// 	   
// 	}
//      }
// 
//    boundary
//      {
//          patchBoundaryProperties
//          {
//              patchName      bottomWall;
//          }
//          
//          boundaryModel  polySpecularPatch;
// 
//          polySpecularPatchProperties
//          {
// 	   
// 	  }
//      }

);

polyCyclicBoundaries
(
    boundary
    {
        boundaryModel  polyStandardCyclic;
        patchName      periodicX_half0;
    }

    boundary
    {
        boundaryModel  polyStandardCyclic;
        patchName      periodicX_half1;
    }

  
    boundary
    {
        boundaryModel  polyStandardCyclic;
        patchName      periodicY_half0;
    }

    boundary
    {
        boundaryModel  polyStandardCyclic;
        patchName      periodicY_half1;
    }

    boundary
    {
        boundaryModel  polyStandardCyclic;
        patchName      periodicZ_half0;
    }

    boundary
    {
        boundaryModel  polyStandardCyclic;
        patchName      periodicZ_half1;
    }

);

polyGeneralBoundaries
(

);



// ************************************************************************* //
