/*--------------------------------*- C++ -*----------------------------------*\
| =========                 |                                                 |
| \\      /  F ield         | OpenFOAM: The Open Source CFD Toolbox           |
|  \\    /   O peration     | Version:  2.4.0-MNF                             |
|   \\  /    A nd           | Web:      www.OpenFOAM.org                      |
|    \\/     M anipulation  |                                                 |
\*---------------------------------------------------------------------------*/
FoamFile
{
    version     2.0;
    format      ascii;
    class       vectorField;
    location    "0/lagrangian/polyMoleculeCloud";
    object      pi;
}
// * * * * * * * * * * * * * * * * * * * * * * * * * * * * * * * * * * * * * //


4298
(
(-0.0404492836844163 -0.113589213805486 -0.149032713797178)
(0.0488564428395505 0.187843797872432 0.0674805146976546)
(-0.137190544064564 -0.330480491066727 0.361895859534813)
(0.0877585075868545 -0.180766950177193 -0.0637564631979612)
(-0 -0 -0)
(0.0343810192789163 0.121732630612473 0.255798823266601)
(0.12141477216375 0.102007672605155 0.245882802433887)
(-0 -0 -0.248788860116481)
(0.0627403097149812 -0.17526913513948 0)
(-0 -0 -0.259511078461244)
(0 -0 -0.242427887435708)
(0.148120908792787 0.119571112463959 0.145795894632463)
(-0.0890115059818885 0.0016394325250147 -0)
(0.0780680836021755 -0.241083962254576 0.0315576318441187)
(0.219993322142852 -0.0834077620456776 -0.0545055011547336)
(-0 0 0)
(0.188775345258005 -0.194548422368496 0.290194850415696)
(0 -0 -0.121696523549593)
(-0.0287834000738222 0.178924076656457 0.117183471676947)
(-0.159551029570391 -0.0375843838414507 -0)
(-0.112093055617821 0.0911182534075784 -0.0942137497895261)
(0.0517717064588853 -0.107581346807991 -0.237517816530046)
(-0 0 0.0930200669767432)
(0.039963953299357 0.171882283051189 -0)
(0 -0 0.15742735129073)
(0.140687988866949 -0.126205763440082 -0.0997894779844582)
(0 0 -0)
(-0 -0 -0.400747187598183)
(-0.0802927287156359 -0.109149859069721 -0.411051657280501)
(0 0 0.27537485987549)
(0.0225651916732758 0.12709445014159 -0.0650294270292543)
(0.137934235074056 0.0523716575619864 -0)
(0.0590274335006897 0.283931260896575 -0.349671418848265)
(-0.086384063110029 -0.173504130464827 0.359495094723949)
(0.0488231755359918 0.229803588699637 0.111043937665475)
(0.0554949781708679 -0.167493642200839 -0.0151985802568978)
(-0 0 -0.232102346644835)
(0.139091065186049 -0.167277432980909 -0.241921022856189)
(0.0677713584072343 -0.129098993989557 0)
(0 0 -0.0872824555881022)
(-0 -0 0)
(-0.105702929115999 -0.169736495176918 -0.323165133741151)
(0 0 0.203864951075938)
(-0.110342261533436 0.257194069494836 0.241926558974731)
(0.0952867477035973 -0.00150821276549473 0.16220240767942)
(-0.0506846657335477 0.201279669195189 0)
(0.0118441995697269 -0.125405797600574 0.147140191212553)
(0.212220213878443 -0.101115456997202 0.00880598551256636)
(0.0405185397239828 0.366812162536668 0)
(-0.172203388954289 0.0424208347294811 0.13333661132021)
(-0 -0 0.439430305628864)
(-0.118829074332723 -0.179373332914726 -0)
(-0 0 -0.192255406057804)
(0 -0 0.119342547904737)
(0.104508610811748 -0.152469077222377 0.142173449103387)
(0 -0 -0.164797772468436)
(-0 -0 0.066943121230486)
(-0.0864148972573077 -0.0166395204620579 -0.316176867901859)
(-0 0 0)
(0.109839131284907 0.130703615067978 -0)
(-0 -0 0)
(0.0190115107824737 -0.18284404482097 0)
(0.190239631055099 0.12568821544774 0.13674474095795)
(0.0438830578058344 -0.238351978240259 -0)
(-0 -0 0.113700297944956)
(-0.0493745409488452 0.139639241921378 0)
(0.0144402750350069 -0.119903810918873 -0.14937983723293)
(0 -0 0.242981034954363)
(0.0894859593190832 -0.00186527889163371 0)
(0.095401326385446 0.206123005102447 0.141104480908782)
(0.0592210480615752 -0.102584660046151 -0)
(0 -0 0.00910519144713013)
(0.0196682485279654 0.19760381072183 -0.216681034948677)
(-0.143659774154669 -0.112694315133509 -0.248440136987564)
(0.210503277216585 0.0207557850253389 0)
(0.114799205819637 -0.0455908481482758 0)
(0.092794455564296 -0.00737410477426933 0.350761449862372)
(-0.0313351489749949 0.119469907445228 0)
(0.143001451030089 -0.261517986338948 -0.131471509283483)
(0.0701455805601074 -0.169000041154968 -0)
(-0 -0 -0)
(-0.232862677306835 0.0291817915603078 0.308160781432093)
(-0.243202138899808 -0.0729511081868579 0.51372039658657)
(-0.0539481857985348 0.180702763866795 0)
(0 0 0.00130130527000981)
(-0.0866631116581062 -0.00848474230601761 -0.174092816487926)
(-0 0 0.18367631619236)
(0 -0 0.234050217430136)
(-0 -0 0.154929628819334)
(0.108445291649103 -0.251658219628326 0.0122635082161641)
(0.108306779463923 0.0583066883317406 -0.123074041797597)
(-0.190245728843644 -0.0500275251073215 -0.380990845639059)
(-0.117158419825849 -0.0321193327031257 -0.241992243565101)
(-0 -0 -0)
(-0.0971872233822568 -0.0938642109604713 -0.0744917356873774)
(0.0904201026425653 0.025405573193676 0.191642022296513)
(0 -0 -0)
(0.0173483913591588 0.363180862965503 -0.0630072674417531)
(0.192985624199372 -0.0266281598310621 -0)
(-0 -0 -0)
(-0.0133412298389134 -0.177042957062728 -0.0620180586215913)
(0 -0 -0)
(-0.039218302750804 -0.147879232986044 0)
(-0.18668246446226 -0.0302862162602029 0)
(-0.1129550948067 0.240648678584363 0.191245201680411)
(0.198574048532821 -0.121213772658025 0.178743998174865)
(0.00219435265931776 -0.266178828038199 -0.0544796398619524)
(0.0571186219690842 -0.326449938566171 0.0953151526097875)
(0.166508402867965 -0.294133189210561 -0.199774421562143)
(-0.236351161587776 -0.244488794833292 -0.160451003768641)
(0.178288573613801 0.116676014464458 -0)
(-0.0338902781856278 -0.118862783044047 0)
(0.146685038291235 -0.131420428359555 -0.260138847770932)
(0.133482003537653 0.0183592480088777 0.294298272589909)
(0.140577358360018 0.251000614519117 -0.163427789424134)
(-0.199606864994693 -0.00293336843129639 -0.533077032832687)
(-0.149821837259478 -0.191580948121764 0.00410105631964055)
(0.0617957945387656 -0.134038391176255 0.106369567993084)
(0.14373939923386 0.0156740160417023 -0.0966283900112487)
(-0 0 -0.106008298264381)
(-0.149422877834569 -0.119072787614937 0.278519154480404)
(0.12327693960194 -0.205275627867857 0.266496623134325)
(0.0300406270613758 0.280727594763106 -0)
(-0.0859688185426702 -0.118389998015136 -0.366582172465324)
(-0 0 0.078799423909936)
(-0.0178833474795996 -0.227030772075197 -0.0770286205751159)
(-0.126486698892316 0.0688144112816858 -0)
(0.243364414028713 0.109197192671813 -0)
(-0.088631783142446 0.0158165584913173 -0.150106622863109)
(0 -0 0.294223635157156)
(-0.0106612969693259 -0.180656479055601 0.053030990864755)
(-0.273889560766451 -0.235668332483822 0.183162839799663)
(0.110957478268182 -0.14421468140087 -0)
(-0 0 -0)
(-0 0 -0.00889377751497943)
(0 0 0.0375956841041785)
(0.370901383118001 -0.108273552841968 -0.0642227670573043)
(0 0 0)
(-0.0238495311695843 0.392683568042043 -0.228020124171514)
(0.00802522465419111 0.201155920652511 0)
(-0 -0 0)
(-0 -0 0.0374173277805806)
(0.132723325612201 0.0897881896750189 -0.175584549622287)
(-0 0 0.121427307647665)
(0 0 -0)
(-0.0644757410224601 -0.182703568862845 -0.0768520033017491)
(-0.118087063435807 0.0186668536638232 0.159214884689169)
(-0 -0 -0.0570734182799833)
(0.0359175766367311 0.117974410700081 -0.162239848675364)
(-0.00806253878613741 0.120144523957051 -0.123754556380317)
(0.0710781387644542 0.0814870812222193 0)
(-0.0884730257078972 -0.0269998512512364 -0.0401909688218365)
(-0.0637426343765123 0.0962595012175948 0.190239853202378)
(-0 -0 -0.0324170897462745)
(-0.105052251269077 0.0570099210565009 -0.342281370391678)
(-0 -0 0.283382680261326)
(-0.11531597792736 -0.168372514701783 -0.449709297257924)
(-0 -0 0)
(-0.0395368695622797 -0.24556885570834 0)
(-0.0299392548024618 -0.245982498970887 -0.118252292482918)
(-0.178743850127702 -0.0259686564907932 0)
(-0.300055803924829 -0.142805376641397 -0.202385680398255)
(-0.194476855369354 0.314106066332384 -0.19532975529276)
(0.108673633146643 -0.211431996896601 0.126057479748006)
(0 -0 0.14115472317671)
(0 -0 0.218582330200053)
(0.0234217925460067 0.213295916670539 -0.341380990620899)
(0.134560368755993 -0.131308575581294 0.189869321017145)
(-0.120267185626645 0.0236596130191358 0.251208684932462)
(-0.127673429629813 -0.0363107910857533 0.150526069983852)
(-0.250545447282817 -0.0704167436593363 -0.355619654997634)
(0.120049672947838 0.0169480615674948 0)
(0.15431617576259 -0.00754953570129547 0.0460361361038248)
(0 0 -0.245574295329864)
(-0.103567911909594 -0.17434188510961 -0.0847399361446651)
(0 -0 -0.309079521232117)
(0.0897238930733089 -0.0209686396506489 0.195840985261506)
(-0 0 -0.16089014618865)
(0.0127591760486148 0.120431858529967 0)
(-0 0 0.153895908506479)
(0.0533931373447247 -0.397596004314575 0.187731929482512)
(0.086279089802009 -0.00668064359136078 0)
(0.169996439587284 0.00842037219523902 0.22300901262279)
(0 0 -0.0398733478808187)
(0.159310275573506 0.00671711786517362 -0.0889901612473271)
(0.203838341030632 -0.0499260804092775 -0.126600053709856)
(0.0166366337952534 0.201777238664745 0)
(0.0447074526445435 -0.191152240898953 -0.141900791913002)
(-0 -0 0.225675738178936)
(0.120967190837679 -0.259080243812463 0.0910786370074685)
(-0.0721018820354364 -0.157816857880923 -0.0212175549325693)
(0.0622968334446869 -0.0861081908669946 0.479702042228356)
(0 -0 0.209164375488929)
(0.000566581919572617 -0.239789660538182 -0.162364594828104)
(-0.0465906857437442 -0.102614086309981 0.0578444571951044)
(-0.275958623139414 -0.186751856710877 0.221716921663286)
(0.0861796813796715 0.545732004261161 0)
(0 0 0.165396798721038)
(-0.0444914372747754 0.14510363026239 -0.146459114275882)
(0.243161650678073 -0.0979515905770833 0)
(-0.0343829779715617 0.154239456640596 -0)
(0 0 0)
(-0.00402624495847141 -0.401778498704856 0.268371985800288)
(0 -0 -0.357171591074348)
(-0 -0 -0.0993291400014033)
(0.0558844391791951 -0.105424344272759 -0.132608984761321)
(0.0283609962901379 0.118811447893381 0)
(0.0677780637944696 0.0822843226351222 0.226748995187297)
(-0.0922246449654795 -0.0890245185952451 0.200456377837402)
(0.133396808345871 0.0165230736612579 0)
(-0.0979495527817744 -0.0845852980785835 0.144353541867572)
(-0.139247268850756 -0.189014000413344 0.111238536315555)
(-0.0867446177089908 0.014264236877232 -0.166444316717848)
(-0.220160171123348 0.0928207414585961 -0.0290964254300215)
(0.0534394236432063 0.0973098069501541 0.214324625945825)
(-0.0744332033013452 0.0644819444270453 -0.21832376218203)
(-0 0 -0.330773343228329)
(-0.0834333646523506 0.108518092523398 0)
(-0.122732657663256 0.0644795226581817 0)
(0 0 -0)
(-0.0290535497496197 0.19177650400765 0.265108950096039)
(0.149559431100406 0.294425590889301 0.107718708380031)
(-0.0818658689104709 -0.250178234434047 0)
(-0.156761492266928 0.113646955673691 -0.0567391790803845)
(-0 0 -0.271830225970605)
(0.186558403433512 0.181505174505501 0.245112696509655)
(-0.0785212409644112 0.125956975230529 0.0168118518803201)
(-0.00539412067842763 -0.274820106905053 0.0926106102475158)
(0.05109229253203 -0.106958726083858 0)
(-0 -0 -0.272485449361137)
(0 0 0.209040442154053)
(0.0747167052505042 -0.118903147973952 0.482075737988744)
(0 -0 -0.188591464318399)
(-0 -0 0.143201708009797)
(0 0 0.108552775825316)
(-0.113863993239213 -0.00633173188243473 -0.0811592681788883)
(-0.199163917778343 0.455085360353597 0)
(-0 -0 -0)
(0.222123596121697 -0.0757417524024119 -0.0832089397723357)
(0 -0 0.025895963899665)
(0.109091847441921 0.239683865874791 0.0391549943936867)
(0.0436402144306668 -0.187226985930867 -0.29365331184248)
(0 -0 -0.167630519862335)
(0.081868408095493 0.0477077229260568 -0.368455018481797)
(-0 0 0.147282792306734)
(-0 0 -0.0784732104101984)
(0.106120082413984 -0.140682262524704 0.296200446299808)
(0 -0 -0)
(0.171412045932911 0.36020936579948 0.366174179609589)
(-0.0218713294257479 -0.119761153953968 0)
(0.0301755754559222 -0.179773840048873 -0.091655977297909)
(0.000575952292486524 -0.269869613372287 0.470448812540682)
(0.196690176827689 0.0432178160256332 -0.247408029719104)
(0.0425434676645514 -0.173315404048271 -0)
(0 -0 -0.0841917075367962)
(0.123140387196685 -0.165663047897015 -0.342774016765861)
(0.241442372291135 -0.00362368593980211 0.0738393054985804)
(-0.326810800218078 0.0647470215350105 0)
(-0.1098355056121 -0.339173070988355 -0)
(0.0883097721362526 -0.024203561815216 0.333728257153197)
(0.0469704634869332 0.108722232599724 -0.0504891221294412)
(0.0290591504115029 0.118808685202892 -0.165988297073493)
(0.00524804315246864 0.164521588958125 0)
(-0 -0 -0.270207580938335)
(0.065288643600851 0.0805919287254065 0.00110655310323039)
(-0.172031058263392 0.218839671479008 0.156071556892509)
(-0 -0 -0.102490727813605)
(-0.0223502904509623 0.214028730903951 0.156650994752314)
(0.268316815321316 0.0402969537552828 -0)
(0.0757976762729821 -0.170469823188622 -0)
(-0.168434614901577 -0.127656522509808 0.303498893521656)
(0.0936145240044829 -0.174410936163216 -0.329200015723724)
(-0.0455481328939435 -0.103492669094838 -0.279866669512465)
(0.050422532069727 -0.107783792592761 -0.152378727964102)
(-0.180952105811431 -0.151388381209999 -0.215880400377268)
(0 -0 -0.178394584708353)
(-0.0858744616047528 -0.229404095383933 0)
(-0.098734947906646 -0.0917382950115717 0.192781117746163)
(-0.0291186667123502 0.114290813978057 0.179561624961454)
(-0.0266628267910006 0.233175807062357 0.250614778292605)
(0 0 0.0658888366520049)
(-0 -0 0.184735056690118)
(0.247138502591196 0.190755264690915 0.391645657232699)
(0.242705088621572 -0.171398572732029 -0.208281977010134)
(-0 -0 -0.248745691238924)
(-0.0703872713304539 0.216396116827583 0)
(-0 -0 0)
(-0.172621908330776 0.206218196685657 -0)
(0.118615252602003 -0.240285612691799 -0.143876255779211)
(-0.111704025741327 -0.0619965513575968 0.476047551063481)
(0.135820037400616 0.142254098896133 -0.0152692979496231)
(0.321817063337776 0.304930988108164 -0.178526874126263)
(-0.162883553361921 0.0287889318064961 -0)
(0 0 0.248425024075662)
(-0.043464951170872 0.102244079590754 0.166514429706712)
(-0 0 -0.392047925494581)
(0.112951343119893 -0.0283606164130034 -0.0635881068910427)
(0.13036994975956 0.0781192746243767 -0.108524499947097)
(0.108046995151091 -0.0581291140128668 -0.132961474139069)
(0.0869577259080208 -0.00722992454408733 0.129359463602505)
(-0.00411523768933439 -0.161669773020336 -0)
(0.150860443420455 -0.10679030099776 -0.0269556709779272)
(0.132421575261163 0.265420660707536 0.191607048824737)
(-0.250682788741626 -0.0149584584823121 0.0242088726817734)
(0 0 0.0812692256775322)
(0.163011020677636 0.178712719899906 -0)
(-0.117959316499539 0.11438671399225 -0.146918068005374)
(-0.395227338111392 0.145692828881897 -0.321913813673313)
(0.244050273352538 -0.0824359048943303 -0.0750303575126476)
(0.092313573904566 -0.0122373172796684 -0.239652884250511)
(-0.160045589676721 0.0863784868103001 -0.14269025319773)
(0.0232312271029458 0.126805612765606 0)
(0 -0 -0)
(0 -0 0.298457361683917)
(0.0959408166436176 0.0863401272030184 -0.0662404031191988)
(-0.114518748020477 0.0386150042805361 0)
(0 0 0.153799260480269)
(-0.069803103664314 -0.499396146530972 0)
(-0.0106216770446123 0.158278518458468 0.226480959263688)
(-0.104650452838923 -0.180542573082268 -0.112477197032746)
(0.203181706022847 0.113547809765163 -0.532168769584567)
(0 0 0)
(0.0875658241325579 0.0149341540966722 -0.00866977173752396)
(-0.065112487779297 -0.131226655309217 0)
(-0.100318498121445 0.0891923294622125 -0.112646259763799)
(0.0880527406202052 -0.0457281881036145 0.113898907936767)
(0.180104340985304 0.102852011351177 -0.317307347155686)
(-0.211333751830816 0.0171890272987016 -0.414429230462278)
(-0.0926658457769434 0.157029680353827 -0.239403941010492)
(-0.0766469108459125 -0.0714907332241902 0.118267216081267)
(-0 0 -0)
(-0.187329249380264 -0.00917552648104677 0)
(-0.0705097311512126 -0.0839509803480266 -0.146629490155124)
(-0.0859249278015281 -0.0487690928671677 0.268528682651705)
(-0.0401741889683232 0.149097648327198 -0.123991415096965)
(-0 0 -0)
(-0.0882669876155176 -0.137979636156707 0.227912214007141)
(0 -0 0.101602758497485)
(-0.0974023648777814 -0.128922112526599 -0.1162506144468)
(-0 -0 0)
(-0.116670393801604 -0.12511995801124 0.162881596293577)
(0 -0 0.155142156357781)
(-0.0601993487626094 0.18082502351745 0.217926364442759)
(-0 -0 0.32725282342645)
(-0.00912381365205135 0.216780918887162 -0)
(-0.00186045865202556 0.202293519190419 -0)
(-0.261057594351935 -0.0410698676364373 0)
(0.315077141339279 -0.2194817972971 0.218510144466551)
(-0.128779558213561 -0.121883982374604 -0.326120960855361)
(0 -0 0.0923632220286737)
(-0 -0 -0.100296036423784)
(-0 -0 0.187738159708022)
(-0 -0 -0.135751675662634)
(0.161979509791682 -0.113979220433638 0.1644069826424)
(0.0323920132456292 -0.292528708627899 0)
(0 -0 0)
(-0 -0 0.0768785413502555)
(0 -0 -0.307785461824072)
(-0.0501038647835799 -0.172072645120852 0.135871903042884)
(0.225341032617227 -0.0358881776702825 -0.021499068507489)
(-0.14361365903801 -0.307430539680625 0.186437853204188)
(-0 0 -0)
(0.065247287763686 -0.194216570883136 -0.300786413751893)
(-0.14243132596571 0.2473920617109 0)
(-0.184795957326303 -0.140909586593037 -0)
(0.0727289752322194 -0.0652886775277628 -0.280299226964784)
(-0.185573460122977 0.276363811935362 -0)
(0.0342716164745277 -0.116403812095042 -0.0306270331973462)
(-0 -0 -0.366238468665868)
(0.0559929440674578 -0.26739531076229 0)
(0.0564918842090628 -0.0992573340549825 0)
(-0.268856837864291 0.235745614344451 -0)
(-0.185089227561042 -0.152850501914973 0.214364595973234)
(0 -0 0.0382989440073419)
(0.0463279641739855 0.102467950477284 -0.30810266614153)
(-0.0444011204956192 -0.273552140322623 0)
(0.14575871877713 -0.107641603442713 -0)
(-0.174655144225604 -0.376715209527714 0.361245956608526)
(0.0343962802816461 0.122503147796203 0)
(0 0 -0)
(0 -0 -0.351555743642763)
(-0.222372406462697 0.162191214434382 0.0106354688966713)
(-0.0877325840974683 0.107816416064853 -0.159316001839348)
(0.0542441822817195 0.194686022259851 0.305536680437954)
(-0.0672608968396912 0.237081064911563 -0.143134988788566)
(-0.0419297561253356 -0.233202523802332 0)
(-0.0129232580806849 0.258934896992959 -0.516013481816583)
(-0.0704557280926909 0.170256672453222 -0.0868256244575806)
(0.0762496866110557 -0.0591179646733256 -0.258537785337277)
(0 -0 0)
(0.0619668196390501 0.237190061392193 0.020903265558254)
(-0 -0 0)
(0 0 0.038708782931913)
(-0.163592018853723 0.10882089976246 -0.321795839392763)
(-0.0829216397772901 -0.0340288328867021 -0.243362649774161)
(-0.163035143030626 -0.138140693225175 0.204574521097056)
(0.0954698305072865 0.0861795007980253 -0.137526035392803)
(0 0 -0.0684735651350144)
(-0.0918846976065548 -0.00369316638546993 -0)
(-0.0383432568704895 -0.17481849002529 -0.0086349181324012)
(-0 -0 0.0499274680897633)
(-0 0 0)
(-0.117733862543294 -0.01333686755279 0.289146538082878)
(0.0884489127287046 -0.0322773271639107 -0.43905525316923)
(0.135114691858991 0.00358599894394572 0.412267776995313)
(-0.0781987329377798 -0.0613453282670156 -0.157256794289757)
(-0.134799542716425 0.0369268086173722 0.112616216798526)
(-0 0 0.267018315102747)
(-0.203273879364254 0.0634414380631721 0)
(-0.0236531652731485 0.118940133262197 0)
(-0.0286480025332323 0.197196537935834 0.288479169116849)
(-0.042626111049853 0.108738679830745 0.00858642968875714)
(-0 -0 -0.14611949311798)
(-0.295175579385819 -0.065495114987776 -0.166967321066139)
(0 -0 0.105263782846269)
(0.0906946123301189 0.21609725403089 -0.300001865532288)
(0.0200741713091561 -0.254132667741877 0.233468756287013)
(0.00925092632770201 -0.130492036341759 -0)
(-0 0 0.0273382118593006)
(0.0435885424610561 -0.148679104739454 0)
(-0.178257117440714 0.0465630269273348 -0.10998219099488)
(0.193533962027277 0.0772919952737627 0)
(-0 0 0.306613291051178)
(-0.0550435999221487 0.0939430895995272 0)
(0.00235639742435893 0.120838420546529 -0.2195965959029)
(-0.0901992359578059 0.00151458937435465 -0.000520953933573778)
(-0 -0 -0.278745070823136)
(0.0803372063901194 -0.306909914734417 -0.00967978922839971)
(-0 -0 -0.199267576050296)
(0.11612211189056 -0.00286727778545778 -0)
(-0 -0 -0)
(-0.105386314249378 -0.0551753478767025 0.192830224478496)
(-0 -0 -0.147561837275636)
(0 -0 -0.0574965423651906)
(0.205222539889651 -0.223430364552194 -0.199886514292538)
(-0.238586285599322 -0.239601111682023 0)
(0.16050937559078 -0.189423960452683 0.104433523275161)
(0 0 0.166792148338684)
(-0.0196165436091107 -0.181521927880953 -0)
(0.0741202384069978 0.0826370946206107 -0.0539885766145711)
(0.111958548093217 0.0171939163862601 0.132635082756924)
(0.0463722147812975 -0.106553313604948 0.220682335063192)
(0.211892621951721 -0.208486636955545 -0.116635535650235)
(0.0900539703709741 -0.272514402248979 -0.234913259482377)
(0 0 0.0872334208309984)
(0.354686656951075 -0.0876563156738121 0.366826052712616)
(0 -0 0.0154227636674028)
(-0.175889758561576 -0.228112218501115 -0)
(-0 -0 0.0613702022673839)
(-0 -0 -0)
(0.0686300510706741 -0.0757217916624308 0.224913754655569)
(-0.103696135185244 0.0833584113642326 -0.154436103883888)
(-0.0131571463132883 -0.153833518209781 -0.113700621861555)
(0 -0 0.454221941228701)
(0.108187632481724 0.0565051500761958 0.0991700534805067)
(0.0916072384281232 0.180893375461009 0.0555788840977671)
(0 0 0.322889543674291)
(0.141080916843514 -0.0837621028962112 -0.297554329604028)
(-0.172652262077648 0.0578427916908328 -0.16455182180678)
(-0 0 -0.242756086126331)
(0.178360550135464 0.165863678987769 -0.146816184882994)
(-0 -0 0.363576651752238)
(0.0142255309175499 -0.123014344778447 0)
(0.0348761740729447 -0.1512565783237 -0.26935581422116)
(0 -0 -0.225444958403052)
(0.218533595158114 0.192050340996474 -0)
(0.0315153858648304 0.224295958539887 0.207681212209129)
(-0.060340170848014 0.196683096056929 0.017084386409901)
(0.20123207720991 0.205154156186052 0.105370668178042)
(-0.091198213569681 0.0312411567251091 0)
(0.184457935169397 0.498838452353317 0.185251134069152)
(-0.123518730089201 0.197476391585615 0.260475028303254)
(-0.100135334819997 -0.456010764904844 -0.0580602835214904)
(-0.263977025718048 -0.0275563979744473 -0.00624835200806869)
(-0.15486379589305 -0.151413815432288 0.0256801946263021)
(-0.0791193483140596 0.147891589570213 -0)
(-0.310397368329918 0.0687132304369523 -0.399831728321106)
(-0 -0 -0.0473805265695907)
(-0.142023691476351 -0.110915083284363 0.198566447295396)
(0.148417231863354 0.101479422964986 0.36370044189184)
(-0.00953854291874976 0.157017246865287 -0.496485704938203)
(-0 -0 -0.195691802039052)
(-0.0177212743924446 0.268075575408218 -0.412533163360868)
(-0.129423829463865 0.265139984413831 -0.0434686262958228)
(0.104244522850767 0.0716072647193622 0.38283943674337)
(0.0755849950971687 0.0584780203510045 -0)
(0.103257953879612 0.442437315665228 -0.14211523981615)
(-0.036378463695709 0.156842078735545 0)
(0.196422005347467 0.164628005358416 -0.0155357473478538)
(-0 0 -0)
(0.00323906849901976 -0.166852796804956 -0.105720892780791)
(0 0 -0)
(-0.086226097807922 0.138341605115521 -0)
(-0 -0 -0)
(0.182236310458199 0.0902599544342083 -0.155070749940475)
(0.118127584375542 0.243816591738575 0)
(-0.0646514916462881 0.17663430383893 -0.0765245627401003)
(-0.0419245401030999 0.110215926916603 -0.300918305591271)
(0.147583791182025 -0.30130733551302 0)
(0.182202806929868 0.00605488497642237 -0)
(-0.082972154795467 0.165055493247268 0)
(0.234132588619283 0.134829424455603 0.219284917979425)
(0 0 0)
(0.120469748197025 0.114166329573763 -0.0567575761683495)
(-0 0 -0.179449245836411)
(-0 0 0)
(-0 -0 -0)
(-0.123758463721612 0.183314820471502 0.201192334718471)
(0.156280292698514 -0.116929091169302 0.0775473981639063)
(-0.114736714963871 -0.0224433394984249 -0)
(0.178475817885136 -0.162589959849385 0.0758245402553323)
(-0.104292747717929 0.08466218017237 -0.149163982232553)
(-0.00116924266319599 0.321489639289707 -0.312758294038739)
(0.0463955115777092 0.376768886768752 0.297495493026999)
(-0 0 -0.297584056830951)
(-0.224675754882474 -0.105197871568602 -0)
(0.281450624222605 0.143088479805034 0.275012788931516)
(-0.149898745004258 0.0486726836308119 0)
(0.136037874905614 -0.199931582424855 -0)
(0.180365373010212 -0.11498430477663 -0.077745025403476)
(-0.0744721868270124 -0.169975653248698 -0.184492456473643)
(0.0182957515070409 0.122352510569912 0.304669986915703)
(0 0 0.465152389775643)
(-0.0359203910818447 -0.236754414070672 0)
(0 -0 -0.0327302331427392)
(0.244928271753214 -0.0346250399687582 -0.0344523198498214)
(-0.0196411716889533 0.283206722549032 0.151376574033173)
(-0 -0 0)
(-0.22612958703056 0.262936325504615 0.140034049888362)
(0.0399948203215761 0.118129725441118 -0.0092092467137025)
(-0 0 0.111646295302466)
(0.0015662422516116 -0.155539001750707 0.403610318165891)
(-0 0 -0.361798427668392)
(-0.159471014151057 -0.0778790733212818 0.0931856638316046)
(0.0373204417727114 -0.115969263184873 0.246134449971775)
(-0 0 0.328106789547917)
(0.119200545541843 0.00422638666993224 0)
(0.00693651089471964 0.263017021099448 -0.0563092274717008)
(-0.114839767354174 -0.0827273224509879 0)
(-0.17854783211612 -0.159849487818023 -0)
(0 -0 -0.335658240863681)
(0.250691084158372 0.260023894338597 -0)
(-0.142873488547461 0.206306790678483 0.354137819189036)
(0 0 0)
(0.169517804102502 0.228657261614954 -0)
(-0.0860507433434149 0.224825903921663 0.0870709698859713)
(0.0626337178008654 0.164733829008262 -0)
(-0 -0 -0.242106116962984)
(-0 0 -0.29255529128804)
(0.0614758167855251 -0.0927070799690244 -0.0379265599917852)
(-0.197982570755897 -0.0792137927111606 -0.0956469534708316)
(0.18070580546688 -0.0267193173667891 0.0724810697887846)
(-0.201752536727885 -0.196160192618227 0.126250189953095)
(-0 -0 0.189239352488387)
(0.0192262143770927 -0.291548752729454 -0.149338716739803)
(-0 -0 0)
(-0 -0 -0.352996316026681)
(0.136165758819198 0.127927874104789 -0.193631858551845)
(0 0 -0.179424121118842)
(-0.0764225583062973 0.172853185545753 0)
(-0.1837889812902 0.102814084768426 -0)
(-0.199176469255587 0.117404003727615 0.123588738522047)
(0.0875546375208634 -0.00213375432375898 0)
(-0 0 0.209762699374098)
(0 -0 -0)
(-0 0 -0.197607639345943)
(-0 0 -0.0371327081174612)
(-0.0879995816401549 -0.0441827261526726 0.226956705690498)
(-0 -0 -0.0953119319869151)
(-0.0506483572044095 0.217777597680066 0.190813126065582)
(0.207100647206138 0.0358513436217471 -0)
(-0 -0 0)
(0.0861514669494779 0.0104921063169022 0)
(0.0537458373934098 0.145020583768769 -0.0606731333491375)
(0 -0 -0)
(-0 -0 -0.154468183928961)
(0.176709153020742 -0.0768152265089433 0)
(-0 0 -0.265771406250202)
(0 -0 0)
(-0.0888146457701887 -0.182976645391813 -0)
(0 -0 0.264547380558557)
(-0.0950847515754557 0.128147477953066 0)
(-0.0300431549917823 -0.152498180803797 -0.181502972112387)
(0.127050180051446 0.221271165245834 -0.148914136522395)
(0 0 -0.38419790741627)
(0.20675830096628 0.0804879133436038 -0.211014198183599)
(0.0076921577473641 -0.166075492298624 0.218887376785698)
(-0.184974705892083 0.142922269017055 0.037726895263162)
(0.0724363344650703 -0.250371175242126 0.316862140085278)
(-0 0 0)
(-0.0718434314095002 0.38618130648672 -0)
(0.0882532358418796 0.106405595920844 -0)
(-0 -0 -0)
(0.0209852077974997 -0.155701514495535 0)
(-0 -0 -0.149188124376185)
(-0.0142398696439481 0.12063117242754 0)
(-0.311589376019338 -0.0669812364094941 -0.129092104976899)
(-0 -0 0.314332323569372)
(0.0870235505027461 -0.0982199087478136 -0.492730962206189)
(-0.110485716402597 0.109058465809706 -0.00680087008839805)
(0.17573091151736 0.0463408229775938 -0.177378475802662)
(0 0 -0.03215488982751)
(0.176421456443108 0.102723513228004 -0)
(-0 0 -0.202211613564638)
(-0.114342519949967 0.309247013592899 -0.0145446916332163)
(0.0895194998003386 0.177626205788871 -0)
(0 -0 -0)
(0.222437826467274 -0.0641945370048936 -0)
(-0.213479029499776 -0.229640260625811 0)
(0 0 0.159765750898024)
(-0 0 -0.126276236076787)
(-0 -0 -0)
(-0.238067728572717 0.00435149882389218 -0.314392216215789)
(0.179151133539625 -0.148098980828423 -0.111427746665563)
(0.167414657859338 0.0515809014614721 -0)
(0.079706038165817 -0.16838945644814 -0.340399690502596)
(0 -0 0.0673501490407448)
(0.195115631095295 -0.221357509632743 0.159965749904997)
(0.0282287232501932 0.116324646878982 -0.313819103663615)
(0.136404660507645 0.0923255033840558 0.100517492924595)
(0.087228382401762 0.046517867707299 -0.0420512750271645)
(0.0710886859295823 0.121560825106598 -0.183311623620984)
(-0.0689668359531592 -0.157231454537336 0.00270604205258109)
(-0.0929992417703436 0.0938669081825297 -0.0679452066626124)
(-0.161777524452787 0.113354210757861 -0)
(0.0126476849828938 -0.129284503236286 -0.067739827207372)
(0.162491967568877 -0.0526891316596547 0)
(-0.229569007769567 -0.0216543507848804 0.119065160600061)
(0 -0 -0)
(-0 0 0)
(0.0421540939157763 0.244033330164856 0)
(-0 0 -0.229008037094269)
(0.11300101612926 0.154858445612621 -0.292771140703907)
(0.158003099308256 0.0416401351739912 -0.148580623335095)
(-0.11427163743329 -0.00956060019958277 0.158682975803954)
(0.0412797362474453 0.176011110501768 -0.309588709724963)
(0 -0 -0.229670072202062)
(0.118328933851352 -0.108763497932101 -0.326856974005327)
(0.0511946686163512 0.104750010139416 0.302339733052129)
(0.129320728239248 -0.122502372453326 0.254910961250279)
(-0.0569027378613724 -0.160387053783432 0.055137564697605)
(0.0920998312740887 0.0213132763004411 0)
(0.112395581912088 -0.145731481482563 -0.112569636799339)
(-0.243756303869362 -0.220772999679418 -0.172584776895497)
(-0.112163781020858 -0.246215128414654 0.168681082902334)
(0.180784324305261 0.00149465319059423 0)
(0.073787068612493 0.183136523027704 -0.302823773836338)
(0.206339464039391 -0.0964154163840489 -0.154970581468486)
(-0 0 0.467409713096337)
(0 0 0.0227024814282523)
(-0.0738785624560553 0.063918777819507 0)
(0.129984165696873 -0.382689903620893 0.209806064391071)
(0.00103443919546662 -0.129375518848188 -0)
(0.0297260409202007 -0.157491611725855 -0)
(-0 0 -0)
(0.0662046500313794 -0.0795025496745755 0.128568605964498)
(0 0 0.119711187526161)
(0 0 0.118956341560679)
(-0.171505323212988 0.0174059026575724 0.142820568049068)