/*--------------------------------*- C++ -*----------------------------------*\
| =========                 |                                                 |
| \\      /  F ield         | OpenFOAM: The Open Source CFD Toolbox           |
|  \\    /   O peration     | Version:  2.4.0-MNF                             |
|   \\  /    A nd           | Web:      www.OpenFOAM.org                      |
|    \\/     M anipulation  |                                                 |
\*---------------------------------------------------------------------------*/
FoamFile
{
    version     2.0;
    format      ascii;
    class       tensorField;
    location    "0/lagrangian/polyMoleculeCloud";
    object      Q;
}
// * * * * * * * * * * * * * * * * * * * * * * * * * * * * * * * * * * * * * //


4298
(
(0.713663170365512 0.536030520620446 0.450950285760215 -0.639597617970842 0.761164698032067 0.107439236574804 -0.285656728171893 -0.365102154791129 0.88605905571638)
(-0.860534295614369 -0.475786356611306 -0.181956228071537 -0.317350493270571 0.780154355224242 -0.53911765547566 0.398458768873779 -0.406185333175862 -0.822340613505381)
(-0.448113195996567 -0.755203649408918 0.478395246102209 0.77823684938548 -0.0661991537351654 0.624471839479819 -0.439934051685367 0.652138880886732 0.617392023112946)
(0.435853710255794 -0.388085304862002 -0.812047621390781 -0.390249213849058 0.731537735121128 -0.559068952083768 0.81100992247102 0.560573222910279 0.167393450915895)
(-0.195642472462408 0.967962174836045 -0.15739520658352 -0.853461361732814 -0.247110417004397 -0.458846538438599 -0.483040088396364 0.0445608560800437 0.874463608795384)
(0.108174568235602 0.418636412768223 -0.901688314602998 0.994005249677671 -0.031068969904348 0.104825010003883 0.0158690390469161 -0.907622318485854 -0.41948766440277)
(-0.821886899124346 -0.203775874947715 -0.531956123977401 -0.303699151991953 -0.633304744172162 0.711822959792954 -0.481942683446004 0.746592588898608 0.458618311970356)
(-0.575273992289563 0.119990568397579 0.809111918890615 0.673989796963378 0.630013784457562 0.385772452337808 -0.463462606241854 0.76725803670544 -0.443302963814163)
(-0.792260064982181 0.601892417767578 0.100247228731422 -0.605404908330284 -0.795895540500188 -0.00593174354758688 0.0762160508294065 -0.0653896478489802 0.99494487663898)
(-0.709398478163313 0.562591192003564 -0.424552646746648 0.215762226880607 0.746794476892827 0.629082403770675 0.67096979114644 0.354667675384123 -0.651160793818643)
(0.578278269727777 -0.770242678970266 -0.268924633035646 0.693765275167276 0.637712828259348 -0.334682075476917 0.429283106740438 0.0069687994784596 0.903143095030409)
(0.649868036961005 -0.760045659444974 0.00145948460228209 -0.759804865791193 -0.649611280443714 0.026490568893593 -0.019185944242527 -0.0183242975072208 -0.999647997879448)
(-0.503578071526609 0.860517455583022 -0.0769339620353891 -0.795659146425824 -0.42723087708341 0.429418560818543 0.336653603257815 0.277458981298968 0.899822685371995)
(-0.293497149028796 -0.870718820173203 0.394598732522236 -0.400851550505338 -0.262640660026608 -0.877688964359388 0.867857971081349 -0.415774722532496 -0.271944704183756)
(0.837912334667199 -0.476173716121741 0.266761150633625 -0.286258995611063 -0.799530696216939 -0.528021262108451 0.464713575059207 0.36607274943878 -0.806245642018624)
(0.506465011655075 0.57500670308097 0.642542203579794 -0.494652339580236 -0.416618398388739 0.76272417889549 0.706266419219421 -0.704128114433698 0.0734257689576487)
(0.330127688127496 0.29619259592846 0.896262046306076 0.545924730802044 0.714676698626018 -0.43726811539344 -0.770053178572954 0.633645928384438 0.0742357030781956)
(0.865296145517024 -0.308792951709371 0.394853762205699 -0.277995926062138 -0.951105697884117 -0.13459649529323 0.417110112136154 0.00669809129383907 -0.908831276930314)
(-0.985952163297877 0.151206584670952 0.0709570323532711 -0.159462137421094 -0.978539550623535 -0.130507373717296 0.0497006882983818 -0.139988987487003 0.98890491199358)
(-0.200249334541169 -0.877572236950264 -0.435622741543562 0.939026450831245 -0.0450613398382229 -0.340879451259912 0.279516598174587 -0.477322160166584 0.833087046327581)
(0.809745822216708 0.259660758144649 0.52620147670102 -0.520153654377786 -0.0973972133421793 0.848501006876605 0.271572972219296 -0.960775766510024 0.0561965056480663)
(0.967141294047927 0.251567702667678 -0.0367615059785149 0.252848942129956 -0.966845801671425 0.0357296551075214 -0.0265542804659385 -0.0438507327743459 -0.998685127266892)
(-0.562171701178573 -0.817036719638066 0.128117044756185 0.82227644217921 -0.535630077197195 0.192254708755927 -0.0884558140038825 0.213427784425541 0.972946118654119)
(0.288327040813505 0.83243969624969 0.473193057475964 -0.46352149412745 0.553758598967272 -0.691736393831971 -0.837863558115272 -0.0198888455554176 0.545517269941923)
(-0.938323340140271 0.248496224768293 -0.240414091982794 0.062318868623128 -0.562388245087182 -0.824521570610068 -0.340096556821058 -0.788650168365966 0.512216013001151)
(-0.750220236961218 0.652048668254876 -0.109554234427047 -0.616874782491273 -0.749902860911153 -0.23897950105315 -0.237981299223695 -0.111706013375786 0.964824682414111)
(-0.730498901166356 0.352561884191549 -0.584868765801398 -0.0845494838103074 -0.896533214234884 -0.434832819093819 -0.677659752517557 -0.268194544293824 0.684725453177309)
(0.842639664158197 0.537371541166667 -0.0344996105995807 -0.523020265279795 0.801528425800561 -0.289830958905924 -0.128094490490475 0.262267057362978 0.956455849544635)
(0.956965020964914 -0.164680661690895 -0.238952355742041 0.286142083523941 0.39817611677841 0.871538001503 -0.0483803336718553 -0.902405706815019 0.428162683592913)
(-0.0600419379534062 -0.226688473814398 0.97211486025392 -0.714533122743686 0.689795966282125 0.116721640680151 -0.697020359952962 -0.687600073255238 -0.203393109692623)
(0.894399275309973 0.0902064691497827 0.438078451020505 -0.330089576787028 0.794048711235161 0.510418960739451 -0.30181253721732 -0.60112347908671 0.73997280711465)
(-0.0523236807168935 -0.100064074497648 0.993604253931698 -0.830084311451476 -0.548783266654811 -0.0989796045749008 0.555177690760684 -0.829954280207412 -0.0543472579531889)
(-0.296361516997693 -0.010593176347698 -0.955017086683632 0.567019794002706 0.802692203237601 -0.18486151592664 0.768543040077753 -0.59629943105493 -0.23188053836321)
(0.359971445413792 -0.58429931632631 0.72733408240458 0.3245610385965 -0.652472854016373 -0.684791433209332 0.874688910820222 0.482569667211208 -0.0452308033954435)
(-0.957327736277699 -0.140859955025216 -0.252353082849627 -0.125227939392063 -0.584769401232718 0.801475333729957 -0.260464140620229 0.798876223486606 0.542176365215917)
(0.368850043476349 -0.500846356992593 0.783008666691974 -0.597999114915904 0.517045132520604 0.612422557958593 -0.71158042692818 -0.694130576782207 -0.108793558580967)
(0.160482756224881 0.965879934330685 -0.203276258849422 0.341747832395999 0.138833658206951 0.929480303396211 0.925987961048685 -0.21863478178512 -0.307806965786466)
(0.436698598461735 0.888977529149702 0.137888675272649 -0.411906946625058 0.333855475745957 -0.847863897472031 -0.799766841913053 0.313463672506609 0.511970237997377)
(-0.684696031828867 0.334576370943644 -0.647495170641437 0.042972804397306 0.905392073425523 0.422396178321328 0.727560775523278 0.261388303840117 -0.634296044868288)
(0.978167714093555 -0.015847684700028 -0.207211906015647 -0.0260446229166274 0.979878509012929 -0.197888314944896 0.206178565137405 0.198964716631488 0.958072774278464)
(-0.0704308407662714 0.510091912420864 0.857231437566181 0.67226443565653 -0.610616511831883 0.418578551803209 0.736953204226946 0.605767047932693 -0.299910417322485)
(0.266055782779703 -0.956214292622688 0.121936651723639 0.962179043346955 0.271112323248811 0.0266382568230351 -0.0585304108427168 0.110237628633442 0.99218035469357)
(0.233290954972737 -0.972400762034586 -0.00347682649339033 0.604015611398152 0.147711017317599 -0.783164476052328 0.762063298890076 0.18060513103884 0.621804885094366)
(-0.945556786799702 -0.00881297447736185 0.325337815843599 -0.106214554432324 -0.936544520349674 -0.334070097179832 0.30763749993095 -0.35043785880504 0.884619961199369)
(0.963932662708001 0.0923971251214083 0.249592854533061 0.111475759779351 0.711410107631465 -0.693879538350428 -0.241675354031559 0.696676704095297 0.675451399602247)
(0.12137583462026 -0.965658888804416 -0.229718996261205 -0.560776024330969 0.124248263948004 -0.81859185156063 0.81902268424372 0.228178174633175 -0.526437615786794)
(-0.82774711856912 0.542575881846365 -0.142989930201951 0.559080153862424 0.819145526078411 -0.128179517329768 0.0475824469493517 -0.18604305830738 -0.981388756404896)
(-0.0425655901237383 -0.880364159469269 0.472384501502098 0.997118953752429 -0.00772056130409291 0.0754598237528535 -0.0627850508089297 0.474235531835309 0.878156419859129)
(-0.592709372773757 -0.805416296559231 -0.00043435348756873 -0.288878503486739 0.212083482829039 0.933579030684798 -0.751827646239084 0.553466517097392 -0.358371322517135)
(0.884791779810116 0.296751233804737 -0.359280129725835 0.185078769551265 -0.931379563815972 -0.313493153302204 -0.427655650543561 0.210881040734666 -0.878999335162905)
(-0.188362283364879 -0.946958423373048 0.260363965648857 -0.981343865538736 0.191881019995827 -0.0120785650990362 -0.0385210043360692 -0.25778172659867 -0.965434986758171)
(-0.487735332202206 0.462879911777405 0.74017324525718 -0.843323748693761 -0.0306631870001907 -0.536530356878428 -0.225653053625927 -0.88589048772178 0.405313142093075)
(0.0487839581019542 -0.527166434862115 0.848360580995295 -0.503409347971449 -0.746578111975027 -0.434971437102213 0.862669782597528 -0.40585301856038 -0.301801546580796)
(-0.0177273296247193 -0.170067868335908 0.985272887044019 0.84630271423105 0.522179031787893 0.10536021377264 -0.532407229167236 0.835706873802495 0.134672058756547)
(0.17391137256018 -0.944648735844776 -0.278197053113619 0.777115359812173 -0.0418659056733195 0.627964141879255 -0.604852504366338 -0.325401308861873 0.726820085133005)
(0.868884776231148 0.494325373077591 -0.0261088330924335 0.491152088981855 -0.854329594526925 0.169972260690443 0.0617160523892147 -0.160509717609745 -0.985102918191968)
(0.803496862874387 -0.562869529811282 -0.193831586076794 -0.31382303019574 -0.677172553641746 0.665546721360026 -0.50587340023941 -0.473935887018849 -0.720747443926008)
(0.333566530508253 0.890370684187587 0.30979576250171 -0.93890865533908 0.284220467572194 0.194085709784116 0.0847579297413964 -0.355610419634145 0.930783177111394)
(0.0356147337835909 0.450916377231601 -0.891855375877643 -0.742504707439658 -0.585374567791026 -0.325612307527551 -0.668893377278824 0.673803410593771 0.313959573360539)
(-0.63515295904453 0.332068553277666 -0.697360161280422 0.0568745214724364 0.920520704830731 0.386531914316549 0.770289560765469 0.205844863676538 -0.603557689598706)
(0.286464131321242 -0.0830275899757474 0.954486626815266 0.957788423746242 0.0498512065956719 -0.283118689843403 -0.0240756475313849 0.99529959133106 0.0938034471230653)
(-0.0648056381524227 -0.882161935637742 0.466466020815588 0.0208988857734789 -0.468545926879256 -0.883191910616422 0.997679039489697 -0.0474871952923205 0.0488006193217328)
(0.322668967731304 -0.939937113063757 0.11136858061673 -0.946078201007225 -0.323842208220987 0.00789061173085953 0.0286491682627479 -0.107909441940569 -0.993747844021776)
(-0.248331609267789 0.778788863145665 -0.576037601618812 0.851560586842434 -0.107927974051109 -0.513026431437789 -0.461709842623091 -0.617931597393681 -0.636383973845551)
(-0.280405364637617 -0.738917870668325 0.612677086146882 -0.780101975162593 -0.196483286249754 -0.593999348965904 0.55929754141232 -0.644511209081336 -0.521336322865239)
(0.0833576859987667 0.981131725114656 0.174447797803439 0.860252686988749 0.0175146428817768 -0.509567023867676 -0.503007764068874 0.192545514770566 -0.84256122271807)
(0.609421622126077 0.148068638261817 -0.778897274901198 -0.360108709705834 -0.823533335079782 -0.438308753285136 -0.706347650721102 0.547602524077146 -0.448558214666857)
(0.431088117616394 -0.807339010144897 -0.402947586601797 -0.669954141113873 0.0127528587964653 -0.742292943114031 0.604420783605533 0.589950071862676 -0.535382507236553)
(-0.737344326778115 0.674169697014616 0.0426446174252807 -0.673228742737141 -0.738572596180522 0.0356872543596816 0.0555554112638648 -0.00239578763332932 0.998452731220121)
(-0.989217381535727 0.136987917202027 -0.0518004112749105 0.134169670820563 0.989460628296704 0.0544625052912014 0.0587151726515466 0.0469252127469134 -0.997171275613751)
(0.983604706044636 0.0398415217601644 0.175881879085595 0.127940130270519 -0.841511118834555 -0.524871755711982 0.127094867375548 0.53876867951065 -0.832811626158726)
(-0.976659921120066 -0.166708606201727 0.135438691281418 -0.143890765369602 0.039654428520462 -0.988798753002888 0.159470518024793 -0.985208489060561 -0.0627167199709217)
(0.847626827979969 0.523826059536366 -0.0844690466337825 0.516157968657191 -0.850932109821332 -0.0974448349924171 -0.12292156800293 0.0389974848627513 -0.991649879894149)
(-0.0153111129702389 -0.588212432945314 -0.808561502637967 0.875076587852471 -0.399110002956202 0.273773941296057 -0.483742219794891 -0.703361457053808 0.520841747097)
(0.391882698083699 0.380915736347738 -0.837455164617964 0.035349732394843 -0.915824358734203 -0.400020174952087 -0.919335818600719 0.127157169486213 -0.37236099001641)
(0.930584837190621 -0.266831513117007 -0.250624827977186 0.0522631429826832 0.774449516816713 -0.630473242721634 0.362326406264403 0.573610398711572 0.734636431041555)
(0.31817426187831 0.805575568242869 -0.499813107999752 0.125973887642691 -0.558461627483734 -0.819909257333033 -0.939625307614891 0.197910622449626 -0.279169602233521)
(0.795990679235033 -0.549134129860381 0.254657703581559 -0.580131899732293 -0.812157181199165 0.062029766561123 0.172759420825466 -0.197110173378012 -0.965039772272076)
(-0.189240566366262 -0.747392724968729 0.636861148685641 -0.769592138006262 -0.289923114745969 -0.568922251854281 0.609849119996354 -0.597786502189379 -0.520322350701813)
(-0.532780335685806 -0.846239635750881 0.00485724106216226 -0.846251271366784 0.53275671539743 -0.00539146631667309 0.00197474469781349 -0.00698291365822557 -0.999973669303457)
(-0.927665778811126 0.35894717321895 -0.102922930685404 0.116509989005669 0.540102174331721 0.833495689097458 0.354769820143493 0.761213878039722 -0.542855235394374)
(-0.729464107619108 -0.400625202440068 0.554420023867567 -0.552558350257738 0.822892450031604 -0.132390653905143 -0.403189019265042 -0.402923643946144 -0.821639307660761)
(0.162213921947727 0.16957590822442 0.972075436823809 -0.956105699986024 0.270632776629974 0.112337841655367 -0.244025683034743 -0.947629627841708 0.206032896538426)
(0.470752760876193 0.873954245428943 0.120813140941574 -0.859726888331749 0.485159585450178 -0.159655423099936 -0.198145188200091 -0.0287080745181331 0.979752178283168)
(-0.201410830306121 -0.940373871785324 0.274099724003651 0.572127032300799 0.114193666028674 0.812176375887413 -0.795049895507243 0.320400979871177 0.515013471427215)
(-0.179044694376125 0.383945228936995 -0.9058305904485 0.449921114770325 -0.786838912360544 -0.422439956063704 -0.87493656221442 -0.483187941873341 -0.0318657328272442)
(-0.629711124931981 0.7584116829055 -0.168153555922399 -0.661573154081364 -0.4101119078069 0.627797088933853 0.407166871117648 0.506576689463138 0.75999683996503)
(-0.967319275795003 -0.139002156771639 0.21206560090751 -0.171287382710686 -0.258449162996609 -0.950717972203363 0.186960025672746 -0.955971982099468 0.22619354155515)
(0.367971221979753 -0.825876904803833 -0.427228882341033 -0.925017550153162 -0.371856821222868 -0.0778783437077731 -0.0945500486693105 0.423851203397685 -0.900783240116603)
(-0.89809772642239 0.0298428496785676 0.438782267324007 -0.261150954904021 -0.838944974095385 -0.477463620805619 0.353865302830966 -0.543397400401545 0.761248062519171)
(-0.746030396471813 0.26813172025088 -0.609544115003511 -0.629656852905668 -0.581947770435787 0.514654291805427 -0.216727698112261 0.767751374521804 0.60298170104145)
(0.0835560022917967 0.995264348705731 0.0496716284851929 -0.832277923482699 0.0971118012601558 -0.545786364926181 -0.548025412334446 0.00426312694694299 0.83645081934582)
(0.668152088420175 -0.738591981383569 0.089747823236286 -0.46437210010834 -0.508218430303524 -0.725308610000455 0.581318621223102 0.442940077364552 -0.682548715099191)
(-0.53714036581761 0.787128569599196 0.303164711551407 0.745826439159604 0.275330726570598 0.606577211619932 0.393983692631852 0.55192536264139 -0.73495254541592)
(-0.213957649616964 -0.937778764402638 0.2734832960271 -0.965167971757611 0.159791149670517 -0.207165573347198 0.150575265112447 -0.30828197729098 -0.939302566808949)
(0.444947842698663 -0.885181180159081 0.135925330862138 0.852705995519396 0.372362883443604 -0.366385545892356 0.273704041773373 0.278926802809879 0.920481361131869)
(0.590415210278304 0.747573462024216 -0.304210122035994 0.0452522177582391 -0.406986510363015 -0.912312565500715 -0.8058300790241 0.52487703251301 -0.274120383190213)
(0.144377382039878 0.294491539502311 0.94468508229826 -0.904986440506699 -0.346807691868303 0.246422335351313 0.40019334583964 -0.890505001683056 0.216439663470297)
(0.255830536838692 -0.845965537327821 -0.467860071040988 -0.942086333435415 -0.326729766171542 0.0756372940532991 -0.216850355718045 0.421414249345156 -0.880560022754733)
(-0.277140819198561 0.949027042818986 0.150135399996804 0.699706202394526 0.0922564618814588 0.708448992921682 0.65848629193369 0.301390804835458 -0.689608139522769)
(0.0941280594664935 -0.174833793297165 -0.980088288442626 -0.0826493965865528 0.979688585401342 -0.182700172080366 0.992123472993635 0.0982009183034496 0.0777662779063536)
(0.386308269906423 -0.842711699660027 0.374970547987457 -0.227036156999607 0.30714628762233 0.924183824471447 -0.893991333300696 -0.442151726510176 -0.0726728747698567)
(0.95562729529606 -0.284492176618937 0.076424301944842 -0.237061433874456 -0.588701867520703 0.772807859527207 -0.174866660786223 -0.756633539185421 -0.630021696709899)
(-0.518058001251453 -0.854848872450069 -0.0291429684520235 -0.847223116475489 0.508156286946629 0.154887633289993 -0.117596336035227 0.104931374276052 -0.987502156171635)
(-0.805703118830479 0.592317007733958 0.00174546725250751 -0.588110902781923 -0.80032545498778 0.116639324962184 0.0704843978187389 0.0929501395786649 0.993172805314582)
(0.464395036027578 0.5494331187362 -0.694593765123728 -0.542740386138231 -0.44320116637152 -0.713446283458991 -0.699835783428847 0.70830500080314 0.0923791213954513)
(-0.723629145444802 -0.688800563674317 -0.0437566377223985 0.551754004138269 -0.539235714240608 -0.636232947437343 0.414642471028008 -0.484539604128873 0.77025514814925)
(-0.873393994759169 -0.440925030409219 0.206804370063229 0.302966312073936 -0.159442099769493 0.939568853554338 -0.381306102320614 0.883268551675946 0.272841202814637)
(-0.357082805163173 -0.916535997553247 0.180148925741658 0.519416216393673 -0.0345423568119754 0.853822944018931 -0.776336695257979 0.398457765359076 0.488398141705076)
(-0.474337053367786 0.478513450405263 0.738937911859729 0.584082714094507 0.799082607523258 -0.142528486450339 -0.658674231239055 0.363994318822534 -0.658525924293463)
(0.267684136944161 0.25075412704705 -0.930305095437691 0.892782234948624 0.298546217360255 0.337357432199178 0.362332835647833 -0.92086509536889 -0.143952743435633)
(-0.538216297119802 -0.827383007952682 0.160501014532063 0.833852903684093 -0.55043870049045 -0.0413106768280434 0.122525721920975 0.111600157497901 0.986170802809629)
(0.692889575682697 -0.0441770478950635 0.719689116458996 0.618607379281854 0.549217042060503 -0.561859013461871 -0.370444255196768 0.834511251661467 0.407875011053782)
(-0.761117634468072 0.200349698267511 0.616895408400681 0.312158899208594 0.946853118827913 0.0776272697621942 -0.568556741360618 0.251652875544809 -0.783207547258978)
(-0.160241179593034 -0.56228499863065 0.81126958816263 0.72412173437581 0.491576410288709 0.48373582320543 -0.670798388614047 0.664972340148518 0.328392004577155)
(-0.640744728250343 0.767606052477576 -0.0150712116031551 -0.767218844222268 -0.640907538963425 -0.0247542232779346 -0.028660744750299 -0.00429822052006667 0.999579955286579)
(-0.877323945492758 -0.479722695507231 0.0129934629831974 0.452628638883102 -0.836164140943333 -0.309769018243157 0.15946789622946 -0.265886563812042 0.950723053920738)
(0.283356309448104 0.511813924633404 -0.811021398267211 0.273928126484347 0.767254778723326 0.579899548238309 0.919060707144379 -0.386479768005483 0.0772062530220346)
(0.176191654041002 -0.881588152524342 0.437902763607417 0.849568916589682 0.360882320473313 0.384703271021225 -0.497181211441994 0.304247070813368 0.812554344576753)
(0.963456465564702 0.246055851767866 0.105868582555743 -0.243960681029576 0.96924008401549 -0.0325091625427592 -0.110611143530648 0.0054933913419802 0.9938485787978)
(0.282809992074134 0.883957287874788 0.372341270336874 0.825588591797917 -0.0267189681676803 -0.56363957795136 -0.48828473811513 0.466803609618759 -0.737341443681783)
(-0.880972632463186 -0.408643269966297 0.238532804373186 -0.38085430647181 0.313254759590334 -0.869954856780441 0.28077966110949 -0.857252666082325 -0.431602419365306)
(-0.8126210558875 0.368945595493923 0.451138744837903 0.279879030698716 -0.431936803185459 0.857378753077701 0.511189541856474 0.822988302237377 0.247740805433839)
(-0.545195057232939 -0.836898679307305 -0.0486101855834852 -0.771316488997979 0.478068167352104 0.420144857358068 -0.328379693904181 0.266554737227251 -0.906154152831133)
(-0.855172396171599 -0.489123323567461 0.171576651000208 -0.444526777797082 0.521796092632025 -0.728096684194684 0.266601043972955 -0.698918601881701 -0.66365402981995)
(0.249651707669777 0.803946474464331 -0.539762995261751 -0.93295031813815 0.0503862055533052 -0.356461686827442 -0.259379507177204 0.592563326983972 0.762621121376924)
(-0.0302972449047301 -0.0930114260921893 -0.995203974855145 -0.888711051752583 -0.45318315740399 0.0694095983144047 -0.457465565309565 0.886551690800738 -0.0689300812008296)
(0.97945345034429 0.109839059739547 0.169134028404096 -0.0892523098122134 -0.515972913512505 0.851942473242532 0.180845137622912 -0.849533597615156 -0.495568060634662)
(-0.271830125669484 0.652788092675146 -0.70708987324106 0.587631507150068 -0.469275547237597 -0.659143135115123 -0.762100777183078 -0.594683249155716 -0.256035619769103)
(-0.987008193257318 -0.0332074160405001 0.157200807767768 -0.0715252036700732 -0.785300124188318 -0.614969804291046 0.14387137200597 -0.618224055233801 0.772722489544205)
(0.237692430130942 0.960036584432529 0.147756777203521 0.964404399270317 -0.251394945023626 0.0820044894175162 0.115872616810473 0.123005439585783 -0.98561818089248)
(0.307935686019967 -0.593152916036958 -0.743871784296371 0.934784004959184 0.3341449803942 0.120523840586951 0.177071955283386 -0.732473037233599 0.657365022174062)
(0.659950493330112 -0.623103692734826 -0.419770335366334 0.742720039942738 0.456835998523253 0.489558793936662 -0.113279692005222 -0.634856407822655 0.764280742152853)
(0.653460518670398 -0.0187344667302995 -0.756728729661657 -0.397122285744214 0.842586424149751 -0.363788411035628 0.644424736260415 0.538235206573174 0.543157087499397)
(0.337885662451816 -0.580444184548324 0.740889889074975 0.752593210930899 0.63933363177724 0.157657750013258 -0.565187347673509 0.504318407261281 0.652860020316169)
(-0.46612973160601 -0.878036489057697 -0.108512659151551 -0.528450953340974 0.177953822369234 0.830103624264582 -0.709551029331875 0.444279597761827 -0.546948787169937)
(0.539360681450744 -0.108860546227841 0.835008644733673 -0.301760428460908 0.900765074098432 0.312350644467936 -0.786149285517756 -0.4204422228552 0.452987459120558)
(-0.413643916124593 -0.680293485842171 -0.605061553706579 0.851750642180072 -0.054410503995246 -0.521114517741368 0.321589107711916 -0.730917416795969 0.601946987387895)
(-0.333511940306652 -0.714351931759379 -0.615200051417859 0.591081502226064 0.349923374946516 -0.726757380005335 0.734433416586604 -0.606015634499378 0.30553658920536)
(0.295785082717397 -0.775885476892879 0.55723685411912 0.381780557903384 0.630741558146275 0.675580263502561 -0.875645356550723 0.0129156329275784 0.482781934186892)
(0.968466733365768 0.0743016030611458 -0.237805504869804 -0.0807991772450211 0.996573592697289 -0.0176795728156719 0.235677065749652 0.036336567269913 0.971151880273458)
(-0.970246312366717 -0.189532946725036 0.150663052685495 0.232960330094516 -0.561242509434209 0.794189102296328 -0.0659664910469087 0.805657562311505 0.588697132954834)
(0.807966682151523 -0.547033315946081 -0.218962078401932 -0.568759156353017 -0.821146321688704 -0.0472413001696097 -0.153957340187675 0.16270608354375 -0.974589076370237)
(0.240311358388239 -0.0240529077838744 0.970397809486779 -0.697379252923044 0.691105275533466 0.18983065011296 -0.675213024624153 -0.722353760810416 0.14930644869178)
(0.79327280226007 -0.0595226679693529 0.605949926307667 0.316155143517566 -0.810259406643543 -0.493483149836995 0.520350061421966 0.583040947055577 -0.623938352431305)
(0.49104359059109 -0.865059016415863 -0.102708764265904 -0.784097014774013 -0.49027035117092 0.380561235788965 -0.379562990242583 -0.106338520209573 -0.919034305974346)
(-0.424133741538671 -0.898570602306274 -0.112611908603616 -0.809256481954216 0.431883184452729 -0.398222125706315 0.406465885042638 -0.0777675231565906 -0.910350315339427)
(-0.72280626963683 -0.689825757978565 0.0411280950566466 0.677696809743182 -0.719225750592813 -0.153105694695258 0.13519663693156 -0.0827933772321309 0.987353597273486)
(0.683627634782727 0.462376747271249 0.564677784709328 0.704108292133365 -0.621441319497476 -0.343572698813907 0.192054080691897 0.632470102063407 -0.750397761247656)
(0.706984100124479 -0.701387644300714 -0.0907130343086069 0.70415438094375 0.686147640684618 0.182669162642897 -0.0658793592022923 -0.193020174088687 0.978980654776114)
(0.986341306742139 -0.00137792426793947 0.164708615254095 0.00753605803428339 0.9992953757843 -0.0367690054994635 -0.164541892670267 0.037508042615251 0.985656690889713)
(-0.961148791705866 0.242069808438937 -0.132646930023615 -0.198860647373638 -0.940522450988764 -0.275448656036339 -0.191435219143425 -0.23836888854971 0.95212017615587)
(0.513074423569785 -0.857254121990724 -0.0432435684055465 0.737223433235113 0.414312316222399 0.533710515275335 -0.43960919618175 -0.3057133869433 0.844560879792624)
(-0.635406837115377 -0.70493072594595 0.315167928197571 0.761191710105867 -0.640421982703809 0.102209904294194 0.129789567427967 0.304848086244671 0.943515931237954)
(-0.399702066146661 0.885978227113743 0.23511877721373 -0.914334524431853 -0.367155302619736 -0.170848942607753 -0.0650433374763849 -0.283265890708006 0.956833213998831)
(0.888991407013113 0.411360117019891 0.201189294899674 -0.357981766085399 0.350325060591264 0.865517999276795 0.285557933539282 -0.841460163077914 0.458695389714859)
(0.100437005083621 -0.964988794432242 0.242299473028815 -0.994638896921958 -0.0913584943298924 0.0484467774330411 -0.0246144823163986 -0.245866329809479 -0.968991163595578)
(-0.98527781784228 0.16197632155494 0.0546927136233524 -0.169354859100453 -0.968476285599356 -0.182681733982195 0.0233784808535797 -0.189254737027125 0.981649678421876)
(0.730780860723341 -0.653704282447987 0.19654527394373 -0.664018857555772 -0.747515479011472 -0.0173079591107057 0.158234921590591 -0.117861443005816 -0.980341975966451)
(0.356133897511804 0.412279147618377 0.838566963028068 -0.323149737569452 0.896373895290615 -0.303460190058473 -0.876779843604908 -0.162910233811736 0.45245702731592)
(0.7159814355683 -0.697337003240264 -0.0330406996512547 -0.698118922874438 -0.715128262614139 -0.0349505012141079 0.000743939641233861 0.0480902476846603 -0.998842717664517)
(0.172719029221519 0.290223753033051 0.94124296019688 -0.869369808188556 -0.404271824278681 0.284183793880969 0.462994895819565 -0.8673721607648 0.18248633147508)
(-0.0656521985166375 0.957328925500841 0.281444696573478 0.941932064097664 0.152544906582764 -0.299155541650778 -0.329323208193177 0.245461564964988 -0.911753719307079)
(-0.253543950323232 -0.892556581584053 -0.372905100428354 0.611610319593722 -0.446584304648724 0.653066057767422 -0.749431973044223 -0.062491659542742 0.659125564871093)
(-0.173847428183445 0.956783506643708 -0.233114549371272 0.984458506840769 0.162874230473923 -0.0656767337523098 -0.0248700627833189 -0.240909332451229 -0.970228928405589)
(0.470697261526165 0.461986232920356 -0.751673339013582 0.75456679505246 -0.652305979416965 0.0715951186962727 -0.457245054424898 -0.600887368654836 -0.655638109321781)
(0.776704115826569 -0.626853752357152 -0.0615230819597472 -0.563286720572021 -0.734990197223894 0.377488384472953 -0.281848872421526 -0.258541646820275 -0.923968305719506)
(0.956406044227652 0.0378120312219415 0.289581989874519 0.0097692346434014 0.986885319475927 -0.161127056254932 -0.2918767558736 0.156931884898413 0.943493689900963)
(-0.52148554773503 0.668747915530894 0.529933060845029 -0.606588151873298 -0.727349136086654 0.320958016321348 0.60008635837722 -0.154076149053259 0.784956624777755)
(0.934469655240064 0.289257883694218 -0.207596580309646 -0.249760881417509 0.948100991867364 0.196784174500057 0.253743897560248 -0.132039334824371 0.958216910991489)
(0.591111552477799 -0.0477611053728394 -0.805174521045501 -0.599314493232816 0.642084774027052 -0.478068280859255 0.539823369935371 0.765144443733466 0.350919804934725)
(-0.00909298279587843 -0.928853517948257 -0.370335604363152 -0.651849200053395 0.286352529440242 -0.702207127045094 0.758294097335343 0.235017810130047 -0.608076221265109)
(0.296078432517199 0.953353357011316 -0.0587787246664369 -0.954958377077185 0.294178109368868 -0.0389067862752374 -0.0198005012125337 0.0676506958087812 0.99751256809542)