/*--------------------------------*- C++ -*----------------------------------*\
| =========                 |                                                 |
| \\      /  F ield         | OpenFOAM: The Open Source CFD Toolbox           |
|  \\    /   O peration     | Version:  2.4.0-MNF                             |
|   \\  /    A nd           | Web:      www.OpenFOAM.org                      |
|    \\/     M anipulation  |                                                 |
\*---------------------------------------------------------------------------*/
FoamFile
{
    version     2.0;
    format      ascii;
    class       vectorField;
    location    "0/lagrangian/polyMoleculeCloud";
    object      v;
}
// * * * * * * * * * * * * * * * * * * * * * * * * * * * * * * * * * * * * * //


4298
(
(-3.0607229935082 -0.763690369995058 -2.58836742331897)
(-1.39125524516438 0 0)
(0.975404954137805 -2.4993088799993 2.21510475259134)
(1.45321782425501 0 0)
(0 1.48596714293632 -0.608375942262129)
(-2.36230622206152 0 0)
(1.0011125675923 0.337092624284903 2.61010802576279)
(0.476712408455747 -1.50115694073063 -2.72109345852546)
(0 -1.45063907608985 -1.67900886421008)
(-0.615227850169162 2.55391661844051 -1.20437145700571)
(0.00668448517762566 1.61762981958122 4.03178389769666)
(-0.252844921763227 1.16391847692495 0.955630894273037)
(0 0 0)
(3.08084707203523 0 0)
(2.71214627447218 -0.38327358933365 2.40544445917514)
(0 0 0)
(0.0257015145965841 0 0)
(-1.07079986426761 2.20523789424239 -3.39390811878368)
(3.00504154663318 -1.11342169934049 1.94088319356005)
(0 0 0)
(1.13193996646737 0 0)
(-0.829799014456902 -2.19504885936028 -2.29820863432586)
(2.77379449697759 -6.16037084166038 1.5915337254629)
(0 -2.44121325272657 -1.01746600606679)
(0.225647981180818 0 0)
(-2.38964577680958 2.18381546893036 2.73245138969038)
(0 -1.20688026821296 1.08679398036563)
(0.678900947852277 0 0)
(-3.19606730633696 0 0)
(1.91215917883883 1.15687440015104 -2.79365211258783)
(1.47903238890216 3.01579509572186 -0.983227929374779)
(0 0 0)
(-1.44184723530535 0 0)
(-1.74963175778071 -1.59028814735433 -0.185642163831403)
(1.9713935001321 1.56185906414998 -0.42320423184506)
(-1.9719722269104 1.15745319358592 1.07348335135008)
(1.31172429632958 -3.43537942132088 -0.184229299964369)
(-2.36897188596418 0.161654289657315 1.62889142893382)
(0 -0.793126515857265 1.91807421823082)
(-1.30017912848292 -2.95589304747208 4.77447244686715)
(0 0.924577788953078 1.14448338541151)
(0.528725294276302 0 0)
(0.930228429821602 1.34482610049547 0.599275220537476)
(-0.678273428093317 0 0)
(0.129733024184788 -2.17311059010093 1.06965842544723)
(0 -2.48405253072374 3.64202197338676)
(-0.379230632491699 -2.2304835378771 -3.3033653710202)
(-2.99929636821646 0 0)
(0 2.96334184662062 -0.445037296178093)
(3.10660962986498 -2.65074600462143 1.03698767724508)
(-2.08041681710879 -1.84602606445434 1.35425571097086)
(0 -1.95000776168257 1.52515434063595)
(3.48495946730881 -4.03122639647147 -2.83197047019076)
(0.900485072002488 1.98532622474774 1.5934113662849)
(-0.441200069707902 0 0)
(-3.0582278672323 0 0)
(-1.44236192601624 0 0)
(1.89750079361929 -1.97842292532242 -2.2750626997443)
(0 0 0)
(0 0 0)
(0 0 0)
(0 1.76601967818961 0.787997773586309)
(-0.651694003355482 -2.42179968061938 -1.39663389743655)
(0 0.639798740463528 -2.1667301003144)
(1.01431898567371 2.88189207758276 0.556996137867938)
(0 -0.833295133965522 -1.2967046497059)
(-0.110919302120679 0 0)
(0.00417873481928459 -0.503882274749772 3.13311266205208)
(0 0.369162455065207 1.51176596407622)
(0.809434909653612 0.692177502241768 -1.47878206550063)
(0 0 0)
(1.92302652466477 2.2953346021815 -0.137607116388196)
(-1.96443124820869 1.70982231596567 3.07525205904748)
(-0.460841953161717 4.07333778544852 -0.371192162345473)
(0 1.44216948395817 0.49663044419017)
(0 -0.122495956752396 -2.34355527588456)
(-2.15083368395866 0 0)
(0 0 0)
(-1.81850346748572 -1.85155742131295 2.272696545822)
(0 0.94648973106188 1.15130162767396)
(0 0 0)
(2.25288669104899 0 0)
(-0.564620570556927 -2.04007816424821 -0.989411232462605)
(0 1.66993892385167 2.80765022425746)
(2.26777693934457 0.701632815089945 -3.33310160053544)
(-1.4421249352551 0 0)
(4.37081523009408 1.16736822135937 -1.05632246118492)
(-1.74810522210091 0 0)
(1.59567353545507 1.98743074979631 -4.36809328052615)
(1.48684359756631 2.34160559601781 1.28838640638351)
(-0.823893401982311 -1.1366675452322 -1.90619008157638)
(-0.401682659840358 0 0)
(1.09918085454998 0.265602844402676 -3.78205644079894)
(0 0 0)
(-1.80270394342647 0 0)
(-3.55473814316011 0 0)
(0 2.33518536267331 0.804910262216762)
(-2.3792637429855 0 0)
(0 0 0)
(0 0.468378114626689 -1.94841748984456)
(-1.41883251899115 1.2021200980073 1.56978413687545)
(0 -1.76602982514287 -1.37753902238886)
(0 -1.52457534811179 0.369289495841472)
(0 0 0)
(1.6506429187222 0 0)
(2.09202344377616 -2.24957733983387 2.72441462315239)
(5.55799983476122 2.42873784792336 3.36045366495082)
(-2.30678430105734 -1.56255998569662 2.49507039753424)
(3.3839968292401 1.52641669664646 -0.186846172138625)
(-3.71575664014694 3.27966171030074 0.503326886889788)
(0 -1.59951076080657 0.0137908514406761)
(0 1.01255584227344 3.51243576384498)
(-2.74515419440331 0 0)
(1.15949029320097 2.32427453646214 4.94997861420347)
(2.48502946588214 -3.56406307288377 2.05125154222554)
(0.183970873258114 0 0)
(3.03653561877624 0.32200260983898 2.98971776747039)
(-1.23364470143346 2.20957975263059 1.37730864455281)
(-1.29936404971319 0 0)
(3.74724349296266 0.670331877770884 -1.41031018706832)
(-2.08844596629056 0 0)
(-2.06546316248705 -1.1868840594833 0.969801196238038)
(0 0 0)
(-0.309198962299432 0.663793250562249 -2.56970787773784)
(1.87460478167547 2.25770616538668 1.02305855672396)
(2.50102616575175 2.58514277179127 -1.81787058914587)
(0 -3.98092900188184 -3.38552169693526)
(0 0 0)
(-0.354392232565871 2.95326597261596 0.767561102169853)
(-0.0286382454441654 -0.612299827353366 2.43332055782384)
(1.38310737017047 -0.989205227316186 1.68764253804485)
(-0.571107876871485 0.227008320206351 -1.92507742606556)
(0 -0.764371989585076 1.80115381094109)
(0 0 0)
(-1.57624963339939 0.779826470667133 1.28865783388316)
(2.03319797192011 -1.07107092819402 2.68138702665309)
(-1.3685889310607 0.0629377021116736 -2.22698227495034)
(0 1.7837991730134 -2.4677031440191)
(1.53873834735914 0.801472733136708 1.29043293023392)
(0 -2.28309252040608 -1.50778562408122)
(0 3.03852448961753 0.903162766473394)
(1.56648940617453 -3.04391571750932 -1.52614096158112)
(2.72013713024012 0 0)
(1.94626109792898 1.9216706958154 0.784824132103835)
(0 0.972576982563515 -1.29764050748507)
(-1.88634982669405 0.00706005027927112 -1.59265227705598)
(2.16888294586731 2.01206597366306 -0.0413494668162826)
(-1.47600521372935 0 0)
(0.0685822675269562 -2.31031123295981 -0.352123146761115)
(-2.12607621221398 -0.484501170031266 -3.99414518954856)
(0 1.2669411300443 3.4519841689239)
(2.8654145500653 0 0)
(-1.60134739574352 -0.342991506068194 -1.56425909173904)
(3.77846163391788 1.49141501244467 -1.71266697095415)
(-1.71365356366409 -3.48725448540627 -1.32563913926012)
(0.759335624272039 -1.35406647495 1.75886213177292)
(3.2659590448934 -0.0612526512766949 -1.52456967361288)
(0 1.52649032695167 0.203389712821479)
(0 1.13470991102258 -1.12607029097077)
(-2.13069968702212 1.17836674625437 3.19540742983423)
(0 2.10943223216872 0.974920589110817)
(-4.8111357431905 -3.05031324905797 0.541449729801942)
(-1.19541697342034 0 0)
(-0.91481101087286 -2.50087478519121 -0.843667108635291)
(3.09124705879838 -2.50664680282554 -1.55255713464649)
(-0.244551845517753 0 0)
(-2.47682586927844 2.75992166667018 0.925465320376085)
(0.731923840338502 2.59259554112194 0.594556254271064)
(-2.47596746907047 -2.40525149451431 2.71783902923669)
(-0.508645989281816 0 0)
(-0.787794545784441 -1.72648539230514 0.925987278001016)
(0 1.36103684027141 -0.696751948361106)
(1.55161621361061 1.51321563754788 1.72633568420917)
(-1.01443260958576 0 0)
(2.53235298945364 1.62114033977661 -0.0208775460468798)
(-0.466902290173533 3.49446385059402 -1.80571766447466)
(-0.280301528702778 0.296739722803686 -3.32528877104965)
(0.133572476332132 -1.61648455987092 1.67809482755595)
(0 0 0)
(0.194879529889923 -2.16130639453874 -1.74046829084472)
(-2.54905632300907 3.19676277785161 2.04663424476229)
(0 0 0)
(0.0257853784276431 -1.12260980456844 -2.36547475103031)
(1.90754608628834 5.1043792343312 -2.24028289005636)
(-1.84365997797076 0.314493494393153 2.044344372391)
(0.926205091970493 -0.742674128096948 1.42278923199497)
(0 -1.31579177997538 1.48493058169878)
(3.19918582487453 -3.76832419665339 -1.85222567690444)
(-1.84127369639962 0.889728156500666 2.73050387126745)
(3.07039207498509 -1.59100569894546 3.15713336356461)
(1.62241889656333 1.63712794880726 2.39707921227579)
(1.18312535821901 0 0)
(0.854961752639744 -3.04796663505592 -1.03704236648204)
(0.0151016825081614 1.59315334567377 -0.0517490564925418)
(1.4703410292747 0.869788131311326 1.72689884324875)
(0.124946870422862 -0.619084750798163 -1.40925434300049)
(0 1.37881679932611 1.86784720002008)
(1.1846021648647 0 0)
(0.116412713430457 0 0)
(0 0 0)
(0 3.08123521777417 2.72979098451404)
(0 -0.559533619202928 1.4037545044707)
(0.722958712525831 2.66468253134683 -0.871471692088853)
(0.0357200398453719 0 0)
(2.03529171573826 -1.48819527805323 4.46863282443654)
(3.564989695444 -3.28920369500885 2.08200282484519)
(0 0 0)
(-1.40366972239692 0.579668817884334 -1.85717148980605)
(-2.74871459472753 -0.87384470140086 -1.24172913694766)
(0 0 0)
(-0.450748493215305 -3.13231314851143 -2.23690276092767)
(1.01023304645701 1.61180144771279 1.14064418581273)
(1.13372707973611 0.0855565992221604 1.56654083847999)
(2.27139239884669 0.252726006675066 -2.74904359338455)
(-0.753392402254838 0 0)
(1.48008436078293 3.69305527266275 -0.220106618960939)
(-1.28356596420207 2.47549213218358 2.04305275545614)
(0 1.31580831848294 -0.964742355909609)
(0 -0.830381555578025 1.8348589311772)
(0 1.87382868306535 -0.589464555199931)
(-1.88237425865414 -1.50083757183665 1.78105552609271)
(3.0651741248426 0 0)
(0 0 0)
(3.47296581462825 -0.530806613964754 4.09850116134411)
(-1.71327100481633 -1.53682110767899 -0.0152000798829798)
(2.16674873860282 -1.88269107476257 -5.44574727182908)
(3.30961314621193 -3.24468386902456 0.673302861954296)
(2.11521703602376 2.12046606186163 -1.36686303157919)
(0 0.843122682179125 -1.79269805312776)
(-1.64124967709895 0 0)
(4.00551103542322 -1.48343231281647 0.645096150194622)
(-2.04267184723808 3.02854680348602 0.883305688493102)
(0.518015443913509 0.228212183811458 -2.3014322433385)
(0.53276394238907 0 0)
(-2.42388397373094 1.80402376250937 2.04797090780131)
(-2.61674103475307 -1.17457138773761 -1.00175710688097)
(0 0 0)
(0 -0.405049646193269 -1.51290331656648)
(1.79879131456468 -4.76493070885208 -0.908195597680757)
(-2.8133416908052 0 0)
(-2.89420623115007 0 0)
(-3.69438055920721 2.01158114923197 -0.422251114883353)
(-1.52666892953777 -2.38616919529017 1.18292260885084)
(-0.657205040031429 -2.92796374047121 3.58063723446919)
(2.63606645956186 -1.44568405331548 0.572464365879516)
(2.48862279840598 1.01444374409555 1.65654032851901)
(-2.36075888867047 0 0)
(0 -2.75703414382863 -2.68037199248734)
(0.514450535865334 0 0)
(0 -2.19903226488392 -0.805699832067007)
(-2.41719262771154 1.21212717336262 2.14613468406935)
(0.403620617795467 0.794804168219367 3.43379504550168)
(-1.32653655591069 0 0)
(0 -1.44976042351975 0.33883407652872)
(2.49352829288986 3.08714022085587 -2.07507472529374)
(1.16269824930652 3.72551962161714 -3.10476960856223)
(2.22234759693496 -3.67192958782364 0.136648987251278)
(0 -0.317319098436971 1.58747905766562)
(0 2.27992772685374 3.47949141503277)
(4.5870234091438 4.00113242949109 2.96833346972884)
(1.90766472240545 0 0)
(-4.17747001416048 3.10170254187973 -0.592753411845184)
(0 0 0)
(2.65844104494241 1.48301460351502 0.533351557569782)
(-1.56275907313225 -0.714984200113354 2.59704593852118)
(0.0247416670828131 1.5950138704148 -0.200403902763953)
(-2.09510068425175 -0.702082786458763 1.44029143027)
(0.0526889869655808 -1.32569278650702 -0.708907908664782)
(0 0.226102041892353 3.12759493251531)
(0 1.39477017997324 -0.596988197476166)
(0.0987387874729302 -3.88359613419343 -1.25641062488826)
(1.03029381556627 1.56346956185068 -0.177948281477737)
(1.12432886161663 0 0)
(-4.90276519577956 -0.977057627346402 3.501297897369)
(-3.0855627803195 0 0)
(-2.70868937453141 -1.00496499043329 3.49744379342523)
(0 0.0597081661678997 1.96358952162798)
(-0.114111530919807 -0.159654466967823 2.45791879608298)
(-0.691487460734032 -1.00664050319375 1.20934419164161)
(2.69772350808226 0 0)
(-1.37054058778158 -2.21490342188517 1.16389084896972)
(4.84649444784023 1.21227615545454 -3.08108440987172)
(1.42714844776345 0 0)
(1.30375951275499 -0.0739274253158305 3.65706249966122)
(3.30371173386723 1.72611086835281 -5.85839184392007)
(0 1.67718781089812 -1.0528891947476)
(0 -2.06459997631163 -0.837571009245029)
(0 0 0)
(0.533714805499718 2.02403384034307 -0.342226897422955)
(0.151863445179408 -5.5988542334286 -1.08174054474967)
(1.49652488907492 0.0730375237147327 -1.5374860076804)
(1.77450136835966 -4.95933683989469 0.476542700546941)
(0 0 0)
(-2.43415394553432 0.954394813108069 1.76420113017148)
(1.55363960831931 -1.14183269078738 1.15112686365273)
(0.727998340376538 -3.54440864810571 1.39237121504417)
(2.22252050772356 -2.7612271930915 0.290020758719108)
(1.73876068335061 -2.06373972280539 3.61346298757019)
(0.761240659461102 -1.10886261846202 -3.27024848472252)
(-1.81414241661278 0 0)
(0 2.00583831470098 1.46355012224261)
(3.35310354773089 1.02484462485993 3.44662056751325)
(-1.10448283163926 -0.168452164814071 -1.48590659252383)
(1.94897811550091 0 0)
(-3.16736218074598 0 0)
(0 -1.72779030838184 1.56857320271179)
(0.283365342361057 0 0)
(0.0538792530288311 -1.10551510750763 2.41679414740375)
(1.88551675374372 2.72103729631539 2.94774402972201)
(1.36208903581877 0 0)
(-0.625453914925511 -0.0729554122633156 4.8007064793082)
(0 0 0)
(0 -1.73548393309153 1.51942603743685)
(0.692827542365051 0 0)
(1.39251897298182 3.40242589585844 -1.33311337328401)
(0 -0.444840048623772 2.30895019229934)
(1.21417856617894 -1.36474605712323 -0.880779951794578)
(0 1.26702834007885 1.56616157112155)
(-1.9916217236769 0 0)
(-1.71440949345147 0.732335924269282 -5.98823038309616)
(-1.00664979169939 1.89859196856935 -3.98465466690154)
(0 1.73854482169801 -2.0070869840123)
(2.77674710407411 0.16830161329888 3.90269549481392)
(0 1.67083347222159 -3.87901560923094)
(1.1615854269684 -3.57815164989741 0.180985361241742)
(1.02739210936442 0 0)
(0.533546164797305 0 0)
(3.32795450727209 1.35609808259449 0.803374293904816)
(-3.19988191553482 3.36933166711903 -2.98031555800936)
(-4.38690090707711 2.7332934099866 0.446772079650367)
(0 0 0)
(0 -1.15265317477115 1.05660312251946)
(-1.82100529043566 0 0)
(-0.453742566618729 -2.41232682436004 -1.39564080227451)
(2.89478199163433 -1.85907500822072 -0.924864098231087)
(0 0 0)
(-0.0961703734288362 0 0)
(1.25583075402143 -0.299723304240859 -1.98265665388266)
(-0.917000531097469 -3.44726445878436 0.932891822152635)
(0 2.43489200138119 1.14344915297597)
(2.61703043750275 1.36160931633115 1.48595538186627)
(1.13844294445807 0 0)
(-1.02674682829302 0 0)
(-1.02820550542068 0 0)
(0 1.63527855806879 2.70772817861086)
(0 0 0)
(0 -3.14255138850344 0.217646014042353)
(-4.07774635167864 -1.99607002010166 0.348576556247203)
(0.922547476183543 0 0)
(-1.8230061651094 1.66492306465675 -1.14086650864656)
(-1.13159722564197 3.90636212817378 0.887016603199963)
(0.743382175193476 -0.628460978937114 -1.94786058482501)
(2.48522478740747 -2.53352231738279 -0.926378275788767)
(-1.56225419153121 2.47177240436057 -3.03374379675911)
(0 1.98798933005189 -1.21492597868482)
(0 -1.97362470554487 2.49724078720864)
(-1.30016657767676 0 0)
(1.38289963971391 -2.32448283470036 -1.44381976381723)
(0.546415815878655 -0.791448283655187 2.48808600419862)
(-1.97920221874334 -2.45274183126879 -0.394096053301182)
(-4.41899895049273 -2.60269069867669 -0.843438220022628)
(0 1.27722130495184 -2.06729524702955)
(-1.4135797153991 1.04846103293264 1.20649521137098)
(0 -3.3137515500119 4.40776657684566)
(0 -3.48103088074949 -3.44063312356475)
(1.96468428971767 0.570371661328019 -1.85943857126159)
(0 1.29046972163523 -2.30260002743152)
(-1.98790400141541 5.24955257442052 1.74476653901439)
(1.72151487235751 0.987548523411752 -1.2854784872311)
(0 0 0)
(0 3.07973765284968 2.73352990230929)
(0 4.93193284437739 1.59152444676141)
(-1.3025938568605 -2.16767376528522 -1.91369130372392)
(2.4903785553209 0 0)
(2.84709760153083 0 0)
(0 0.162823556431286 -1.48460233594788)
(0 1.81599664479135 0.711864871678466)
(1.26528869327151 0 0)
(0 3.54938820624938 -0.401582923444933)
(0 -5.07418812172338 -2.04971803657658)
(0.0687729153447454 0 0)
(3.16102755715174 -1.53924853686149 -0.0784458211771116)
(-2.0308305909359 1.73399000970186 -1.80115790246509)
(-1.93172907701463 -2.20751754054141 -0.194092801079442)
(-0.67222915493776 1.43427171873119 2.09703371222235)
(0 -0.646672723062571 5.92193797087317)
(0.956647629620927 2.35320650496483 -1.42109363781396)
(-1.36243602879606 -0.575663868729909 1.48188020009148)
(-0.105525795058059 1.42628928328952 0.470146877757069)
(0 -2.63032927132746 3.12737613095829)
(1.53597474734763 1.51072117978336 1.30841003398661)
(0 -0.704037076105183 -1.85559546456835)
(2.19932251642859 -0.727349758132328 -2.12640326845394)
(-0.164523661634797 0.711400391185447 1.78435791275317)
(-0.477630233655535 0 0)
(-0.186600088363515 2.26983651046095 -2.69534929080149)
(0.810933382818527 -0.518078574648348 -2.45802836609344)
(4.73656113250647 -2.22801558594322 0.4800962803476)
(0 -1.59838745538802 2.49258306312229)
(1.93543516981288 -1.97228471926145 0.598769060463906)
(2.67957107593869 -1.81782003452275 -0.749783822653192)
(0 0.870310850016507 2.07018599590039)
(1.700832619844 -0.145485483209928 1.92380955543579)
(0.627338882960143 -1.59780222936443 0.264056600720456)
(0.137336304755615 0 0)
(1.31917195922649 0 0)
(2.03480888061835 0.603952240556975 -2.55412187995816)
(0.265043128823729 -1.18451527051572 1.97153550823855)
(0 1.23639742612989 1.03655245423645)
(0 0 0)
(-3.00627521126462 -2.08331098900274 1.70265942864645)
(3.45729869609682 -0.369745130286434 -1.55914430641489)
(2.40503725611386 -3.67066170469057 -0.608402616136883)
(-1.45379730942053 2.161252827431 -0.902478488877706)
(2.30717160697178 0 0)
(1.40839724994372 -1.0468255508914 2.31028690869456)
(-0.863151751825669 1.77982614627159 -1.06712110363457)
(0 0 0)
(-2.04814915421102 -4.86999972066814 1.4224431613084)
(0 -1.63991078950187 1.54270382208351)
(3.04677746497574 2.05670863813537 1.85426358311836)
(0 -1.12362458519557 2.69176255838397)
(-2.08397040535021 1.40297674994057 -1.31551437783198)
(0 -1.76357573069284 1.66066478925575)
(-0.770619613051871 3.11303664426623 -0.584198836732331)
(-1.95660150746489 -0.828705417249777 4.72972450994302)
(-1.86070385905548 0 0)
(-2.42549180748538 -3.02460126392781 0.00373365210596588)
(2.6760534091837 -3.38569991248009 -0.792960269156973)
(0 -3.89715233037024 -0.875595554256564)
(0 0 0)
(2.03149356148124 0 0)
(0.15663746534793 0.230500495928686 1.51391690279907)
(-1.42074545602959 -0.524045522983533 -1.45414307666662)
(1.47619367672913 3.74532698441872 2.83866083735807)
(0 -1.46126776264076 -4.45461420033999)
(1.24504814427249 0 0)
(1.05402442866082 -1.50196988441814 0.000453575370939835)
(0 0.313884390242872 1.45139933007837)
(-1.92467077871903 -0.924547846674093 -1.86133486438986)
(1.85475524550618 0.937649428110508 2.35947981433303)
(-0.13374000771353 0 0)
(-2.66110938042734 -1.68842641733705 1.00183679440551)
(-1.35489529527901 1.36949641452712 0.858353773903248)
(-1.81922568185039 0 0)
(0.364958235770357 -2.17728887103176 -1.87525161363706)
(3.73596485157232 -1.17327644085765 -3.65381774055058)
(0 0 0)
(-1.40946115584978 1.5742128847474 3.16051926012137)
(0 -0.737002748985195 -3.59138901293697)
(-3.96876485113031 -0.966936605186342 -1.16359333413705)
(0.222307850392867 0 0)
(2.19445480050231 0 0)
(4.06761298971824 0 0)
(-1.23783617433009 2.97533095762997 -1.44150113770246)
(1.45840983803669 0 0)
(-0.91039837347069 -1.82067785331518 -2.96480683919438)
(-0.697116612643063 0.58717697552974 -1.94206417466542)
(-1.15493315903458 4.50748167671881 0.471598293436252)
(1.67752175412169 -0.000635643261865601 2.3087801126033)
(-0.298584606632152 1.82663427534099 -2.60088119513554)
(0.122343915121847 1.73223213312048 -1.09196198539083)
(0 0 0)
(0.277236713835598 0 0)
(0.0222401167944308 -0.498197413156957 -1.39745000526755)
(0 2.9279569042659 0.0793204962734006)
(1.80124798786924 0 0)
(-3.38951510856274 0 0)
(-1.0666044950393 0 0)
(0 0 0)
(0.754228996262884 1.47804013885822 -0.162209526921754)
(0.240314086693263 0 0)
(1.36238385649667 -3.81591858441575 1.1846705833102)
(-1.51718278146873 3.07895897210106 -1.54199828299779)
(3.12929182553878 1.99130480744498 0.39171085779243)
(0 1.74991419689071 -3.46533656389293)
(6.5050805528739 1.50773972101992 -2.34748301182206)
(2.88528333966803 0 0)
(-0.44500473739197 2.39259919445762 -2.20880726695664)
(-0.425171380654299 -4.17980937205776 -0.0580822569530126)
(-3.96569067641603 -0.50908641112427 -1.42493760346615)
(-1.02906086320479 0 0)
(-1.427742086829 -1.85167600125416 -0.914708554509285)
(2.29748119387176 -1.7349372520636 1.02576116529557)
(-0.287116294844079 0 0)
(0 2.49585917767906 1.5756580568734)
(-0.592510468745424 1.37539550112711 1.87415503484083)
(0 0 0)
(1.60734958742603 0 0)
(0 3.29716465382841 1.57613179322555)
(-3.48801741790145 0 0)
(0 -2.14183335466814 -2.30908655602803)
(0 0.857738738947418 -1.33706126054194)
(0 -1.74396150905903 1.5659315918114)
(0.474097107177699 1.56860021977192 -0.405695291807139)
(0 1.00954411210726 1.26043713078798)
(-2.30882098980811 -4.22787702280782 -2.87476694547199)
(1.55363197467055 0 0)
(0 -3.48963856925171 0.600810149874345)
(0 1.59000097698226 0.289697161340143)
(0 0 0)
(-1.50201209212268 1.4078936370435 -1.43167844162739)
(0 0 0)
(-1.49357285328585 1.54628783731094 0.386285503722537)
(0.831126539173666 1.48910209177069 -0.617467787695946)
(0 0 0)
(0 0 0)
(1.37156473847299 -3.31097097585279 -2.67579896096149)
(-4.16608312126981 4.71653453487794 -0.464059336122275)
(0 0.67795789853913 -1.87397180544665)
(-1.27417195450635 0 0)
(-1.98657123999138 1.44380979595981 -0.588789581080226)
(4.84036446927802 3.76043886354865 -0.221519233224296)
(1.00467023616483 0 0)
(-1.13918435209716 0.641753389747777 1.83553684560189)
(0 -6.73642970630495 -4.3827873483673)
(1.5344424574168 2.27393410146985 2.82635445495336)
(0 3.99743925388174 -2.18411522551243)
(0 0.798459534212901 2.9464485667103)
(-3.21553419625266 0 0)
(1.21259042495039 2.07849811198585 0.871797982941627)
(-2.80103550326585 0.5181068771435 -1.42350852245939)
(-1.66201157381741 4.1250511909132 0.474399541249949)
(0 0 0)
(-2.27016311578515 -2.3768062029434 4.96552831291428)
(-5.26961784399389 2.42881048208566 0.219676451065028)
(1.2745470373858 0 0)
(0 -1.77045188485293 3.09379831757738)
(0.491973109659726 -2.23748492395716 -0.966678070033974)
(-2.02553003516555 1.55480389329463 -2.34863422247703)
(-1.1648178168218 2.12727700546937 2.13054764320763)
(0.24055955682236 -3.93483205355779 1.97783947832237)
(-0.992200621621505 0 0)
(-1.16785311192803 1.78912862794112 0.965428316550539)
(0.459114043696691 0 0)
(0.0297115802186322 -1.43282570871354 -2.46962849515769)
(0 0.736296409494304 -1.33766951918971)
(-4.29630186512474 -0.756869528037927 -1.37653473498461)
(0 -1.3925309837924 0.699536098254353)
(0 -0.0473469489597791 -1.58821446799784)
(1.26299232040228 1.07341664950147 3.43057034632313)
(0 -4.49365037898088 -1.3122198608578)
(2.68519621280049 -1.53486990549983 -0.0503393735085113)
(0 0 0)
(0 -1.13481616566797 2.70673255012681)
(3.23922694863163 -1.50308988250527 0.433259473014012)
(0 -1.47459862074356 2.93935704837206)
(-1.03795889687776 2.88234733233642 -0.532579534699776)
(2.76002781363752 0 0)
(-2.31250585245048 0 0)
(1.12197792089772 -2.94266049029175 -2.37937093600892)
(3.07395806065556 0 0)
(-0.852497325570895 3.00046268569177 -2.02057082477289)
(-2.51785589662113 0.053333478043465 -1.63414883854279)
(0.327968967456393 -0.443681838602505 -4.44897881924451)
(0 0.264989938412041 3.34491952262588)
(-4.24687900939262 -3.435554249217 -2.05427658079143)
(-0.409195449195274 0 0)
(-2.17731129605919 0 0)
(0 0 0)
(0 -3.44400255882452 -0.130608838372268)
(-3.44610757815884 0 0)
(0 1.45676602191678 -1.36229619165374)
(-1.28134184933928 1.44818705096912 0.751248043233081)
(0 0.672110439547761 -1.4234805517797)
(0.121211192471029 1.75170815035613 3.25029960831999)
(-1.44580967592156 0 0)
(0.404098945099605 1.17360346624262 -2.66901737484052)
(-1.22249454015351 -2.00979745229279 0.319799832146734)
(-0.532787138262437 0.09771602495196 -1.48196176305891)
(0 0.451175211684841 -1.86972174799627)
(0 1.59633835591575 0.242636870938443)
(0 0 0)
(1.86014096680791 -2.77646651768908 1.8918509760965)
(0 0 0)
(1.96997418702013 2.36968398589513 -1.84025606712506)
(0 0.718877717942402 -2.92143199199104)
(0.0093805880349898 2.50311324905995 -2.43428935533286)
(0 0.965421728593243 3.40448690658301)
(0 0 0)
(-1.11646513984596 -2.77819477181447 0.291310342141601)
(0 -1.76153675824386 0.826277497767128)
(1.9677192810887 -0.286016016076273 2.42999862870479)
(-0.158213246969714 -0.873723884946501 2.8479554473426)
(2.28045035201717 -3.68071265587307 -1.36691982161238)
(0.840329031900041 0 0)
(0.710660974531827 0 0)
(1.51253044689727 2.53245370478973 -0.196037994025217)
(0.613819446614982 -2.21976388384058 1.10998126928748)
(0 -0.873639890349313 1.76338876370918)
(0 -0.526430945692643 5.73357936851413)
(0 2.41001117081246 0.47472217750577)
(0 -2.47799761322603 0.383722229290521)
(0 -0.0351637216070053 1.47082427803864)
(-0.1538900642442 2.32134860680941 -2.09215285643542)
(0 1.20109985925697 -1.06374526394364)
(-4.06280634522458 0 0)
(-0.359623406357593 0 0)
(-0.146459032698249 0 0)
(-1.9556697206462 0 0)
(-0.797858798178388 3.11212381523514 1.12982042414812)
(3.22628766573102 -1.94932191432933 2.90893253678563)
(0 0 0)
(2.18126172272827 0 0)
(-2.43421948863314 0 0)
(0 0 0)
(0 -2.60420958294526 -0.539749539274404)
(0 -2.17260529994137 -2.00817836717657)
(0 -1.6804300998791 1.82785190171779)
(-0.0290642952674205 0.744823222567551 2.86006891511426)
(-4.08862661476991 0 0)
(0 0 0)
(1.92677514966293 1.52287037845863 -0.419315211013341)
(-1.08046312865134 -4.60172048343726 -1.92496404274097)
(0 0 0)
(-0.0658955988387063 -1.80139770413473 -1.65386961225868)
(5.68104619009102 1.60717534515424 -2.86847898159063)
(0.2662057158219 -2.42990549837645 -1.78752617898254)
(-0.707184533093526 3.06777350873046 -4.57370045799938)
(-2.02976537268334 0 0)
(-1.56924052906592 3.58540699133194 -3.72121718447209)
(0.806206883796739 0 0)
(1.5169504397379 3.07912574335846 -1.74740115136808)
(-1.3268737386397 2.85920503063021 -1.65275766870943)
(0 1.63443552560164 -3.27845006809402)
(-1.84793087304425 -0.756107179744823 1.35307922189894)
(0 0 0)
(-0.966997222871008 -0.872302543288196 -2.60932135067889)
(0 -1.24468115508813 -3.63642599257463)
(0 -1.818907170577 -3.35441362320524)
(0 0 0)
(-1.34292677940939 -1.54537747932264 0.328315842793336)
(-4.03248215505714 -1.39307575568813 0.544193334106196)
(-2.38561461403931 0 0)
(2.96482938024592 0 0)
(1.76284108185771 0 0)
(0.26703402387484 0 0)
(1.18373689165823 -1.04117468944768 -3.21455006337205)
(0.459431120187118 0 0)
(-2.47630971641694 1.03557472225525 1.05234991922001)
(2.86871588666509 2.45928363415305 -1.30217029620243)
(0 0 0)
(-2.23499483528855 -1.63964598530269 -4.47263971399209)
(-1.77414317129739 0 0)
(-3.37984038530707 0 0)
(0 0 0)
(1.55457076405068 -0.0145812386278987 1.94572559754672)
(0.116717718201707 -1.40778730957772 -0.533604830038038)
(0.869354634620289 0 0)
(1.46244735037783 -0.0720224956757833 -1.49233340526928)
(0 2.00155233666391 -3.06863456724154)
(-4.33558798969773 2.33656429118709 -0.014910981867348)
(0 0.357504083768682 2.30509808621081)
(0 0 0)
(0 3.23676816480574 -3.74783721152649)
(3.33571543901305 0 0)
(1.50074695989481 1.03696570448356 -2.29661634081284)
(3.37666119364971 1.45249219384259 -0.583258926439533)
(1.30620955115846 0.8451415595351 -3.37907861034108)
(-1.77078979990591 3.90919243732851 1.00230565272851)
(-2.52632012600297 3.82721944188536 -0.607101077800057)
(0 -0.7568898429707 1.79707411854439)
(-0.43828932129293 -1.13041843853417 -1.57168266958537)
(0 -1.526966423047 -0.300951098132615)
(-1.44335275970816 1.8500962939488 0.941285058051786)
(0 1.07933843060275 -1.09871496077829)
(-1.9101124161544 -2.92436695421811 1.62533669231257)
(0 -2.20868700377781 -1.24887261381544)
(1.93842585727292 1.53772921162748 -2.56241606811608)
(2.78693152683998 1.94400575613391 2.14945810932135)
(-1.23966115283452 0 0)
(0 0.238921740965467 -5.35753888943925)
(1.50302435940629 -0.471554170117496 -3.61174714645509)
(0 -2.80506140242717 -0.582480105772069)
(0 -2.65819060205571 -0.150404335823714)
(0 1.12776438071317 -1.00168395111732)
(0 -1.72321720756447 -0.892039311003661)
(2.46890465813936 1.40454138074445 2.07599823019805)
(0.891309386868088 0.897247847691973 -1.7708217295218)
(3.15801267789948 -2.78316658313159 1.74759511873017)
(-1.41473461441803 -3.78140464856259 -3.71944341591254)
(1.7127483383981 0.107704518476766 2.27669948181354)
(-0.523400010753928 0 0)
(0 -0.733230207084963 -3.6623644523033)
(0.509918331930473 3.01637035653028 -3.27126248330416)
(0.438815445206682 1.08749854640011 3.60370561292506)
(3.3042932086553 1.46502585104748 -1.39699972819125)
(0 2.51985424036137 -0.741133621629759)
(3.6429058145634 -0.112138223941953 -4.00927977087782)
(-3.21237989921732 0 0)
(0.0971451919710741 1.28262091793999 0.82904815243323)
(0 0 0)
(0 0.253878998736857 1.56796607406374)
(2.38235722665268 2.48153295423116 -1.79190894650162)
(2.19730562593743 1.59447766392962 -1.24832049740384)
(0.608856112869496 0 0)
(0 1.29490895534227 -0.75595681552348)
(-2.99580734735199 -0.37228981366788 2.84164261658434)
(0 0 0)
(2.71301328666924 -0.910983516265876 -3.25196071112968)