/*--------------------------------*- C++ -*----------------------------------*\
| =========                 |                                                 |
| \\      /  F ield         | OpenFOAM: The Open Source CFD Toolbox           |
|  \\    /   O peration     | Version:  2.4.0-MNF                             |
|   \\  /    A nd           | Web:      www.OpenFOAM.org                      |
|    \\/     M anipulation  |                                                 |
\*---------------------------------------------------------------------------*/
FoamFile
{
    version     2.0;
    format      ascii;
    class       Cloud<agent>;
    location    "0/lagrangian/agentCloud";
    object      positions;
}
// * * * * * * * * * * * * * * * * * * * * * * * * * * * * * * * * * * * * * //

600
(
(6.74815102794587 36.3201152702421 0) 30
(17.5629514910108 35.965547401442 0) 31
(6.31895593661766 69.9515755148379 0) 60
(7.72905766392548 0.697536161494225 0) 0
(0.774966245878006 50.2064403845959 0) 50
(3.41688143248525 50.2088165144477 0) 50
(1.70377567489807 28.5366921352859 0) 20
(18.5084737923501 43.661122556618 0) 41
(15.1474565338099 37.4113700526819 0) 31
(16.2045047041981 96.8366755623541 0) 91
(18.2643435142303 7.62897762825199 0) 1
(7.13834868145098 85.8983478443224 0) 80
(2.76543131226927 20.6403827390822 0) 20
(15.3815702141177 5.44909863055176 0) 1
(10.328366193142 52.607061738431 0) 51
(17.7854354110479 75.2177501447581 0) 71
(2.2366594999268 85.3825861520053 0) 80
(11.0668323240554 76.7419344637273 0) 71
(15.4878941250443 42.7780772292884 0) 41
(18.5969035227769 93.9794499399045 0) 91
(8.83765329087044 81.3143019011776 0) 80
(1.97019879797948 10.0689247297444 0) 10
(10.7460094665857 52.7071448288426 0) 51
(18.0237029763049 2.393362905082 0) 1
(19.8460077028004 29.4673299554118 0) 21
(7.41926151673275 71.1410383559489 0) 70
(11.407877230741 90.5517560385874 0) 91
(2.23842774622069 72.7880509909187 0) 70
(15.6474299242941 70.8665427150515 0) 71
(4.6947208906965 88.099989848258 0) 80
(12.66354798929 29.8789805871802 0) 21
(3.05231333852388 12.4007814621556 0) 10
(17.8285431851766 74.5010374926501 0) 71
(3.45582293507448 70.5957283128964 0) 70
(12.9150356505602 66.5821865045383 0) 61
(9.57929767182996 10.2636322426906 0) 10
(4.066511394487 8.76344466058698 0) 0
(12.2941178978859 57.7474823956133 0) 51
(12.0281690601391 74.0626043053635 0) 71
(0.705986842841835 51.589104370954 0) 50
(4.54602853606736 59.3708837681314 0) 50
(9.98452796134377 40.6262418444391 0) 40
(2.68285855775832 79.769528880608 0) 70
(10.1272143098187 61.1147785378223 0) 61
(9.84295366790283 91.6514424568282 0) 90
(4.30608459948845 74.1096760025759 0) 70
(17.3020914929463 12.5325082859641 0) 11
(17.4067091557229 36.7919896900617 0) 31
(1.47754359127839 75.6531733440483 0) 70
(8.44707196971731 4.31266040742056 0) 0
(2.91525853002223 71.9628962091929 0) 70
(16.145268173956 90.1318482077363 0) 91
(9.5758661113567 34.9088496225462 0) 30
(1.79429078558194 42.1969303592094 0) 40
(18.7572069460327 8.02017585747883 0) 1
(13.4782119251221 12.5013881421189 0) 11
(10.6255259973116 16.5161773639341 0) 11
(19.2571412489084 17.313699385763 0) 11
(15.6856955940303 66.5419228219157 0) 61
(11.6386730464355 46.9217777936355 0) 41
(4.20629074992905 27.6432462630995 0) 20
(8.03515090981273 79.72378822962 0) 70
(3.3031555746231 7.54191121437676 0) 0
(16.639016911685 27.2093002811118 0) 21
(6.30439213770646 23.9034958295075 0) 20
(19.1732784170533 25.4304443604455 0) 21
(3.11245851363636 46.0982533386435 0) 40
(16.2014206015511 76.5927329084802 0) 71
(3.75793264422469 63.4416231249653 0) 60
(14.2923597964888 89.9785569356655 0) 81
(0.495989006243641 12.5756979047208 0) 10
(5.81837506304419 38.8528586080544 0) 30
(11.2333115987635 55.6075750643423 0) 51
(4.42989956793836 25.377581513197 0) 20
(14.4598718613665 34.5950359174027 0) 31
(12.4476564454137 80.3428630718695 0) 81
(12.0133302509847 93.3308131030439 0) 91
(0.174544854170896 2.41403672956584 0) 0
(5.92466741144874 76.5824291280389 0) 70
(0.0971849821960484 84.0678088292795 0) 80
(1.899650637945 61.145297745776 0) 60
(1.4487102168839 96.3523169962467 0) 90
(14.5890099809454 25.0605457579068 0) 21
(17.7004337765744 88.2506540921753 0) 81
(15.6458421962549 91.7347131258504 0) 91
(0.862082206114234 59.9639678653162 0) 50
(19.7633652946741 80.7091560124928 0) 81
(7.26334620605379 33.4022863457921 0) 30
(11.7559735717978 54.9833844206219 0) 51
(17.9156840769181 58.4662288699607 0) 51
(7.76181837905283 31.0792271658216 0) 30
(4.88200804445986 51.8167025650929 0) 50
(10.8461478589318 98.8757431501875 0) 91
(15.0916344463321 25.2827644931538 0) 21
(1.87011465517344 83.8540763519025 0) 80
(8.9998748195357 75.9440971892067 0) 70
(14.4592828277775 18.8488264655922 0) 11
(8.78187444469979 52.242925182098 0) 50
(8.09871584554143 45.2414639970481 0) 40
(7.3952354245797 32.411541106371 0) 30
(18.4751017943374 18.7227901624156 0) 11
(19.8863892349817 41.2865881534697 0) 41
(14.9377748998524 91.1923353984916 0) 91
(9.23514395450947 35.7486772051773 0) 30
(18.8429812150276 33.4687423116848 0) 31
(12.9095938955013 35.7541401105719 0) 31
(17.514168535133 33.0239979704022 0) 31
(6.37994821480473 88.9580096998056 0) 80
(2.84815482927866 41.8015819703236 0) 40
(5.13113165513199 7.35791330568395 0) 0
(16.6604020989781 23.5913474688266 0) 21
(8.48803478688376 70.6550323733385 0) 70
(4.57959150177408 55.5984245872118 0) 50
(0.167977716851969 86.3495462044839 0) 80
(3.75221745285774 63.3915367365775 0) 60
(16.4228653797986 37.8160657071583 0) 31
(15.8205307721256 11.1365961894098 0) 11
(0.465786308267054 81.5462730739016 0) 80
(3.45899004650255 53.7915283133236 0) 50
(17.4520541250017 48.5046513138826 0) 41
(16.8517582942041 11.5098562610847 0) 11
(8.90677084629739 51.8082401025147 0) 50
(8.15324995115085 71.8296341001194 0) 70
(2.72624320477538 76.4335953520767 0) 70
(16.7583017315521 55.0070239487137 0) 51
(15.7196742835081 39.286874346103 0) 31
(1.98838133457507 67.0935191060852 0) 60
(4.53838872934617 21.038545305393 0) 20
(1.47761829266214 32.8398642283119 0) 30
(19.2462801929779 23.5318322309907 0) 21
(12.2695795876298 26.1491787275994 0) 21
(7.45715498340184 78.3457278638825 0) 70
(11.9784001782436 40.4505517522108 0) 41
(18.8484160131069 39.6147064583445 0) 31
(17.6238715637586 77.1869511237307 0) 71
(17.7393614769631 81.5023506905429 0) 81
(6.6621181492983 72.3781492432478 0) 70
(8.84155665936021 33.2306616163024 0) 30
(1.9328513843626 74.0768405022457 0) 70
(5.81677288087866 57.8389993672441 0) 50
(19.4251747426694 93.4557655795737 0) 91
(12.1098569278186 7.68223577536747 0) 1
(5.74415622546531 7.0677803396563 0) 0
(7.98152891359363 83.2412282858236 0) 80
(1.35461210336285 36.1088725906372 0) 30
(12.4516102729606 36.1390455328576 0) 31
(2.89695467003479 68.1209584549633 0) 60
(1.71430204143482 99.543826281812 0) 90
(7.83170654803128 74.3767742413919 0) 70
(10.3127450637113 2.81359022614248 0) 1
(16.8631881833371 27.2778905123835 0) 21
(19.9312079511263 40.2605326568058 0) 41
(14.6982388546216 17.6265316166107 0) 11
(18.3406744330845 43.8638230058662 0) 41
(0.340564465308825 83.1554511949213 0) 80
(15.3222433455858 20.7872365232498 0) 21
(5.69389446903667 98.8286960398912 0) 90
(1.1792952759095 37.1605013204555 0) 30
(4.08034592125581 57.1902534725099 0) 50
(18.6598252126294 45.8041209475156 0) 41
(16.3886332960746 27.1747901230933 0) 21
(19.0591497156113 55.5571773813838 0) 51
(11.0202007326392 96.4279398305472 0) 91
(14.1609428050746 3.86725873866456 0) 1
(1.33616980227463 94.2595364033522 0) 90
(4.30748537383391 22.3684392973634 0) 20
(12.5257944001471 90.9967899280585 0) 91
(1.72466430893385 21.1934665782347 0) 20
(13.0114579168202 36.1201662272774 0) 31
(3.85512348443974 0.326693663525718 0) 0
(4.2227860373551 66.7601119572111 0) 60
(13.1177615901072 95.8868341501275 0) 91
(6.6094670941166 49.5834025319588 0) 40
(1.35473119158052 71.4852843300837 0) 70
(3.45788105551986 53.449065076862 0) 50
(16.1247710399911 0.0727820210497743 0) 1
(11.1259918804867 99.2325717579725 0) 91
(19.1321023177039 75.9196037314458 0) 71
(15.9573725033353 10.7309630190632 0) 11
(0.998099875169853 66.4652255673265 0) 60
(17.7667329822512 86.4677115280496 0) 81
(15.4929002819084 26.5279262450188 0) 21
(9.5442785646507 51.4626368654252 0) 50
(17.5165606185405 86.0878229542113 0) 81
(17.2829033235474 12.7786824073543 0) 11
(15.9077588729131 6.85842046833524 0) 1
(0.549050923692552 7.5284468045125 0) 0
(11.4223698672943 45.1276022685355 0) 41
(3.32257731972382 35.7925900890457 0) 30
(17.8483310331816 63.8855053409401 0) 61
(12.791657472398 33.9022918762184 0) 31
(6.62697271752496 69.865510319297 0) 60
(9.15702280083533 19.5882467178573 0) 10
(6.06384195669733 28.7953751295783 0) 20
(19.0521201486942 25.571976474287 0) 21
(2.4079375911541 35.3097091593359 0) 30
(12.3675270901842 84.0942656081609 0) 81
(7.11138048540399 89.5041894118787 0) 80
(15.1184024639048 9.5590282276082 0) 1
(4.4675421269925 23.1397054731565 0) 20
(5.99962519761157 62.0065289372609 0) 60
(13.9069951483547 1.87650495296181 0) 1
(9.40082145361268 32.7433806065206 0) 30
(13.7071941391133 26.6468250316786 0) 21
(18.1064660745237 63.6169938666825 0) 61
(19.5038571485802 57.777625814908 0) 51
(5.52862721752777 54.4906176880424 0) 50
(14.8157728904932 30.6541492839596 0) 31
(11.8899048920208 73.4282500918155 0) 71
(19.8000453225337 4.39807418938637 0) 1
(7.94155666974446 54.7101251570089 0) 50
(7.76087814372074 11.039914521873 0) 10
(0.108820777437101 1.54541875307701 0) 0
(2.22088940545027 74.3612931456237 0) 70
(19.500199723756 76.1361162532755 0) 71
(7.62852902879404 33.4421576622139 0) 30
(7.06373253234836 27.4991245602719 0) 20
(12.0485010333585 7.67762083917745 0) 1
(6.86488917417121 82.3227699298052 0) 80
(9.18795274998432 28.7784758157928 0) 20
(17.3112203261402 24.8567762434747 0) 21
(15.8694787863034 43.4590494462564 0) 41
(14.8226397460432 14.1992376717735 0) 11
(17.525497562031 53.4262583374168 0) 51
(11.5648665053606 33.5627231437539 0) 31
(17.6545696601526 86.6277143762576 0) 81
(19.5335257796261 97.5321159220916 0) 91
(19.8155069350337 27.0772389728004 0) 21
(0.287706414371592 98.2117328318822 0) 90
(14.8695698077183 10.1819816558538 0) 11
(8.72482787292675 98.9395307372043 0) 90
(5.28773105018201 12.4904941359956 0) 10
(4.03362299503462 78.9428020263756 0) 70
(12.2531143819229 86.6811604642687 0) 81
(3.09192724669908 54.4925608460291 0) 50
(15.8698674179008 7.20533561297009 0) 1
(10.1328770118453 2.01573786419618 0) 1
(3.24299510719394 58.6967310210209 0) 50
(2.42459786237432 24.7775837428763 0) 20
(11.6680613866393 3.84246329955871 0) 1
(18.0940355351633 69.9473218852409 0) 61
(13.4958875521533 46.6131551873931 0) 41
(14.7380788413519 88.1378065739469 0) 81
(17.2699078718526 66.5569723893688 0) 61
(15.3477908183577 75.1289262786177 0) 71
(14.8136913938512 60.6973883512883 0) 61
(14.6375764974568 20.3630934098564 0) 21
(19.8611790872464 0.507112220165838 0) 1
(17.4376545368869 93.355997462457 0) 91
(9.569711652384 60.5714672992804 0) 60
(13.5553605824501 2.64790887136381 0) 1
(0.932729347111997 27.1978953514238 0) 20
(17.1789252744889 18.4411879249109 0) 11
(8.64375433355745 20.8786223180958 0) 20
(4.94421712353091 98.0176156843163 0) 90
(13.5929875045982 1.55907855441751 0) 1
(9.63444675767536 15.1912632934708 0) 10
(0.665813964170317 35.4443752371913 0) 30
(0.400269525312013 21.8626279485704 0) 20
(19.3983108454376 89.6786091801145 0) 81
(10.0751994969673 78.7403017183488 0) 71
(19.820679025641 71.0600111964438 0) 71
(14.3134246833219 23.5638799255546 0) 21
(3.3839754682891 98.4092905178709 0) 90
(11.796151554117 58.7553960544781 0) 51
(12.2806609851684 64.7684356033655 0) 61
(18.3932661909579 26.7575606362697 0) 21
(9.03974971223611 66.066951707968 0) 60
(17.3891148052128 77.8609572806679 0) 71
(15.1757145929969 88.4175202289678 0) 81
(17.9953197659903 11.6666595971522 0) 11
(5.37158457812461 43.8435104414092 0) 40
(15.8575771450333 38.1488325717621 0) 31
(12.0022921040665 30.1869927114746 0) 31
(3.97312036900461 81.2892333517267 0) 80
(12.0059070047019 57.0030147009543 0) 51
(5.6126051701664 70.2415993298598 0) 70
(18.7610958510829 59.1329301051483 0) 51
(11.5084441152906 99.6301492674417 0) 91
(11.6771090550707 10.7253565502937 0) 11
(15.0987584400451 16.5229783004722 0) 11
(8.65610778734838 19.7888502011955 0) 10
(17.1711603818327 67.4601231084485 0) 61
(9.06421607782329 88.4792874979224 0) 80
(15.3793615360648 72.8013758886612 0) 71
(16.8936070971627 21.1996533075346 0) 21
(13.0086327497888 66.8734064637094 0) 61
(1.00444779778107 11.3259583764365 0) 10
(8.30259021758222 44.3310494275443 0) 40
(5.12405654654096 65.0336995092377 0) 60
(4.40734284203841 61.3785529795003 0) 60
(6.32403045255879 85.6498177562141 0) 80
(8.95654956295926 50.0997400610241 0) 50
(9.94597786569315 25.4256315182083 0) 20
(7.23019761370039 2.32496834468328 0) 0
(3.7695893290311 8.11543455725323 0) 0
(5.58085695168975 11.6447802221611 0) 10
(15.8209806754352 62.1284855818974 0) 61
(10.1215546066507 13.7600866210461 0) 11
(17.3122925019415 24.4259837197261 0) 21
(99.3897540305693 7.48496014042057 0) 9
(97.8982371920246 30.1554853237027 0) 39
(85.2608909575552 26.1219752608435 0) 28
(90.1671703672815 96.8411656081868 0) 99
(88.5340642968817 87.3551752825059 0) 88
(97.7118667204454 41.4278198692146 0) 49
(82.8103561246816 78.606554483346 0) 78
(87.105646024973 72.4847284948848 0) 78
(93.1552828909621 22.3094610601242 0) 29
(82.5641405594368 28.3645395787268 0) 28
(82.6914478478448 0.80096866041467 0) 8
(90.4251834984986 65.2402783582175 0) 69
(85.0593493250475 71.77064780694 0) 78
(87.8618057667566 54.0030748834848 0) 58
(98.4245285757 34.1047884589549 0) 39
(88.3179497198751 21.5506821971157 0) 28
(90.3412335041637 89.0714130313468 0) 89
(83.0386776491248 31.0809345129323 0) 38
(85.5844200149106 78.0106223551606 0) 78
(93.0731595182201 66.0292400820317 0) 69
(81.491411980936 70.5924216055276 0) 78
(89.8397952084615 53.9251311467612 0) 58
(85.281971919016 21.5088405280881 0) 28
(88.7636603176425 84.7272062137384 0) 88
(82.6183491491798 92.1862740964565 0) 98
(98.5974485513742 56.6390043853964 0) 59
(84.3758565394095 26.5489849851229 0) 28
(99.6639265584126 45.113160202798 0) 49
(99.8232470265698 47.1760293688513 0) 49
(96.2561635655613 37.6286616258457 0) 39
(91.8358687645923 91.2388779647829 0) 99
(96.0620581899127 22.8705663806156 0) 29
(90.7903001787096 10.8855112972136 0) 19
(97.7792267304748 95.5036791951878 0) 99
(92.3065838461307 81.8736009681009 0) 89
(90.4932045054125 54.2619311969084 0) 59
(81.6374124687339 68.9899791353335 0) 68
(98.0997639419976 1.66499856936978 0) 9
(97.2784409566216 34.5969219387495 0) 39
(85.356639197728 34.3171212516339 0) 38
(98.1912251367193 99.4839505290072 0) 99
(85.2065870935128 19.770438745511 0) 18
(92.9767197896618 12.835408334078 0) 19
(92.0022875405859 24.3525682130608 0) 29
(92.3962459677813 63.9998340345918 0) 69
(91.0477423998749 41.2922554841695 0) 49
(92.832564372957 21.1605736153017 0) 29
(86.4092169918163 35.5490029023723 0) 38
(86.210536419512 18.1143227117668 0) 18
(99.9975847452868 20.9422185648895 0) 29
(95.0408299616728 92.5856013282135 0) 99
(92.3151160927094 52.4539462069301 0) 59
(90.82378895526 83.3912121520337 0) 89
(83.5976268088434 52.0744001269687 0) 58
(97.2783042757205 40.5111495128419 0) 49
(87.9990199990566 44.771330079423 0) 48
(92.9083537649868 77.3476470156329 0) 79
(98.0366110792554 66.028035462847 0) 69
(98.0761207444948 29.4253677266768 0) 29
(98.6850403615669 50.1944930526402 0) 59
(98.2973497166752 52.3618335148142 0) 59
(94.7044814353364 48.6639137606434 0) 49
(96.8425833326031 55.6495704015948 0) 59
(94.7527786319855 5.56849208919727 0) 9
(85.3021421308174 15.2655987140097 0) 18
(81.5702400084446 73.7518168397955 0) 78
(85.2411526000319 1.71486041588469 0) 8
(97.0212145135837 69.4267805057703 0) 69
(84.3002361172346 80.3247078230254 0) 88
(84.1671714578602 3.09420661213538 0) 8
(89.5731073383117 7.8927019182093 0) 8
(97.0480697960817 60.8309573311503 0) 69
(85.3717985494862 12.4073054699261 0) 18
(88.3665346393206 75.4234043301192 0) 78
(85.1235794672387 17.2395964233389 0) 18
(93.9202859969438 35.2578749578716 0) 39
(96.784357743703 17.104645873003 0) 19
(94.5508432642328 43.1238371148351 0) 49
(89.7384658408065 68.1347053815307 0) 68
(96.6800608191081 46.5181094345255 0) 49
(84.053985245551 75.2030398581191 0) 78
(95.383580064114 91.2515041377635 0) 99
(92.1356569193935 46.4756892279143 0) 49
(85.3600794008747 62.0239728419222 0) 68
(93.0236358908115 82.1794651831405 0) 89
(98.0144334295832 47.6362543402409 0) 49
(81.693442324965 12.9837160990498 0) 18
(85.0782043137952 75.3125160817581 0) 78
(90.1471840730622 35.3262043722562 0) 39
(90.5131601684322 67.2236948121449 0) 69
(80.4963139446901 76.3538177015045 0) 78
(98.6916927242147 22.1672307803143 0) 29
(93.0582135790299 86.4033584885315 0) 89
(90.9076127646992 66.2126798956714 0) 69
(82.5461578567262 13.9833970526156 0) 18
(97.8372873821469 37.9383678724702 0) 39
(85.8379744020468 33.0007155113857 0) 38
(95.89528094786 66.1043371847385 0) 69
(85.6256620053321 89.8681566072014 0) 88
(94.4095243580684 6.27680174367353 0) 9
(90.7826112167829 93.2464894807183 0) 99
(81.2460411159536 62.1197888916916 0) 68
(87.4864609853767 62.3802677087394 0) 68
(99.5412944161991 31.6212271487439 0) 39
(99.7689843921778 88.1682252921947 0) 89
(92.9044085894266 50.2722728765906 0) 59
(94.487900731381 1.32649168433924 0) 9
(97.5459700345741 57.9805065216406 0) 59
(84.8386372741492 37.7305715054882 0) 38
(90.3427937116208 42.2679139498006 0) 49
(96.0412563644542 36.9239756543767 0) 39
(93.9849382331525 40.9004054688385 0) 49
(81.4009485214022 9.39615378593847 0) 8
(99.8528620879412 49.4010959050623 0) 49
(91.1355795297472 35.1330526336716 0) 39
(85.675908422878 71.3119321834817 0) 78
(86.6863442057214 9.59095368608411 0) 8
(94.3942442789647 34.6097476941579 0) 39
(93.2461949685804 70.8640259554908 0) 79
(91.8064502402239 69.6776934292529 0) 69
(83.9899932611687 65.0758968037907 0) 68
(93.280477697626 23.5542941016864 0) 29
(96.3069601339786 92.3894699627484 0) 99
(86.0240082936473 54.1322386144345 0) 58
(99.280030512847 5.72798699407279 0) 9
(88.5303925390031 81.8340100263404 0) 88
(84.5468830897225 76.6064343399398 0) 78
(97.2005176344889 12.5766538142118 0) 19
(92.3955499438548 29.7391581021897 0) 29
(92.9744421471723 85.2668985655843 0) 89
(91.3157661405 17.6556473214438 0) 19
(85.4493202015056 93.2517528502512 0) 98
(85.5723000995686 90.0105517311071 0) 98
(92.1749155280064 99.2178224023515 0) 99
(93.7791031663209 94.0924753873108 0) 99
(91.8336744289071 19.906828794585 0) 19
(88.6922245792543 88.8454821374479 0) 88
(96.246990410726 25.5707605860991 0) 29
(95.9405998401067 24.9959235195983 0) 29
(86.1447821120474 11.3549934753007 0) 18
(98.6378007096414 76.1031517182026 0) 79
(90.5419172023153 73.3758732552528 0) 79
(97.1905054138929 15.9234189502538 0) 19
(89.1325154104887 38.7121741374546 0) 38
(84.7958145312945 47.9302767887387 0) 48
(93.1171848220365 10.5347877883049 0) 19
(80.757308118398 80.5579033589726 0) 88
(94.1136910087027 92.8325251642766 0) 99
(98.4100695040124 31.6480411363989 0) 39
(85.1481032954287 31.4430326369791 0) 38
(90.2699722863128 60.9458633051002 0) 69
(89.9582690791964 84.908888621679 0) 88
(82.0959298322424 94.8109843744016 0) 98
(83.9613815694868 31.0262974496122 0) 38
(88.4762581849826 90.1826483617456 0) 98
(93.2571600066764 50.530818407671 0) 59
(84.7813383232715 35.570294426554 0) 38
(90.2987426846748 18.9953859983922 0) 19
(91.5415120364826 9.8592186858222 0) 9
(91.5578990949122 97.1562904758175 0) 99
(81.5382156435113 81.6866328388856 0) 88
(92.4489072395716 23.3754195381773 0) 29
(83.2415889311775 11.4776188561123 0) 18
(88.6251319985022 32.8129911948056 0) 38
(92.8512047756702 8.25829217594969 0) 9
(93.84083109621 68.8661764696549 0) 69
(90.7550130089535 15.6058852633489 0) 19
(82.0833739182369 18.9955008770318 0) 18
(90.0043596653288 64.2547142059797 0) 69
(90.8874725042318 30.2237774851843 0) 39
(96.150919178571 92.4030892515569 0) 99
(85.5946767356222 20.7231625079751 0) 28
(87.9437097012734 4.66128750921287 0) 8
(82.904101239007 79.4670971014849 0) 78
(95.3246775061473 97.4261086887802 0) 99
(95.8225483055331 72.3100016695959 0) 79
(99.1370842415546 84.3144657948587 0) 89
(99.1584169301942 41.3572776789578 0) 49
(94.8340537747527 11.893365863661 0) 19
(84.0303316079221 38.9177445969161 0) 38
(81.556784204001 38.4262927055481 0) 38
(90.8064356030926 89.3558135206605 0) 89
(81.6702628702252 61.5589860647726 0) 68
(85.1627400448372 64.4490476066475 0) 68
(98.9345650183664 58.3731126777703 0) 59
(90.1552403858654 80.2510627453453 0) 89
(80.1948450413509 75.427420984687 0) 78
(96.01774169878 78.7495856074381 0) 79
(91.6433365324714 40.6927737131215 0) 49
(87.6237764803803 94.609214688935 0) 98
(93.383843262393 34.8400701465272 0) 39
(83.830907178964 17.2316238830013 0) 18
(91.7177803123918 62.6046374731719 0) 69
(94.8996006673666 14.9466204992247 0) 19
(90.7728730192282 32.7591703891564 0) 39
(94.2370926282541 94.6496613764435 0) 99
(96.8010949794208 61.6482861161457 0) 69
(84.6414544268704 25.2176411101677 0) 28
(97.933337743363 92.3567892482303 0) 99
(90.1459803852001 49.0209723585383 0) 49
(85.8544070114635 84.339513808647 0) 88
(91.9533869493536 1.50610380876162 0) 9
(96.05113788324 30.2462602640718 0) 39
(94.1878068047519 39.8556431941016 0) 39
(86.8929715672941 38.4723720319906 0) 38
(94.6624884357036 9.05791637909502 0) 9
(85.2579080524193 1.38407410186905 0) 8
(92.7977423150082 92.4669781199037 0) 99
(81.4827197145125 84.8784418240555 0) 88
(83.5275224333292 38.4867149118738 0) 38
(86.6272752483502 61.2779637152692 0) 68
(84.5852499569697 88.8230753079164 0) 88
(82.8081432743036 17.1418510922891 0) 18
(81.8997280681039 46.133521965767 0) 48
(99.0308988648611 3.70740508833314 0) 9
(97.609383779396 60.22854226652 0) 69
(92.3469292150563 24.4265293816228 0) 29
(90.9345579291389 47.8138535971818 0) 49
(97.5338993582567 41.9903354449153 0) 49
(96.0925414953812 25.6118236228879 0) 29
(86.9339480003966 22.1343545811876 0) 28
(84.7036857366113 53.7751496088575 0) 58
(89.248425536439 60.9592802640792 0) 68
(89.1675444083137 87.5071402580976 0) 88
(85.1987710246811 53.6557263013235 0) 58
(82.9867379940053 63.4753342547805 0) 68
(90.4596819032262 59.1302314117226 0) 59
(95.2544165008023 37.8599397548753 0) 39
(96.7986923441285 66.3391259342149 0) 69
(94.0093062045096 85.7707228445312 0) 89
(89.199853012897 79.1479560449477 0) 78
(80.7148970760009 58.0934498729619 0) 58
(81.1814606847155 7.73391109320052 0) 8
(89.9448493076232 58.247275025699 0) 58
(96.7718197390306 93.576800214861 0) 99
(83.1422309498965 30.1869539684555 0) 38
(96.7924207247758 18.5288386505697 0) 19
(95.897623792243 39.2295834325392 0) 39
(85.3473447288141 30.2042312595082 0) 38
(96.7719915121663 25.3258409562175 0) 29
(97.7602350421996 52.7305788140421 0) 59
(82.3721620358397 98.7936475308582 0) 98
(87.3307174571467 41.0995847271288 0) 48
(81.4877421229555 88.1328926832103 0) 88
(94.7807231055483 20.6470489598098 0) 29
(99.9590010009515 77.4852416373255 0) 79
(87.1157382927443 19.9028805456603 0) 18
(85.5273583370854 3.36949033819581 0) 8
(92.3233530820922 41.4859948872989 0) 49
(87.0125590111188 77.3610382235427 0) 78
(81.5095984383997 45.4758640590477 0) 48
(92.8009405419235 50.7739498050762 0) 59
(98.0007066475231 91.5100958158775 0) 99
(84.3428654057639 43.4928216242664 0) 48
(93.76373252541 16.7402568351199 0) 19
(93.8941671298324 5.57428458965117 0) 9
(80.8735864147887 57.6198377914819 0) 58
(99.7438845037221 81.3316458283605 0) 89
(93.8929077023142 41.0215193596769 0) 49
(92.3337136732106 6.15813308682206 0) 9
(96.7286749448295 43.3681539927461 0) 49
(92.6542069076813 61.4635733242443 0) 69
(92.9666127418012 19.2220661413027 0) 19
(92.1416122057203 90.9078262238334 0) 99
(93.6537728894752 26.449829072901 0) 29
(94.3851386263897 95.7708560841954 0) 99
(89.3089611685411 75.8168566393744 0) 78
(93.4653904817372 35.930395795 0) 39
(95.8846434931665 36.5483390337547 0) 39
(90.6577191830881 89.0412794375053 0) 89
(98.9231128054313 48.2418800463164 0) 49
(81.1723435582464 22.7594315180366 0) 28
(80.8182154692794 98.9834961476659 0) 98
(88.0010030921553 4.58114030984283 0) 8
(82.147854679333 73.5556158579679 0) 78
(83.3847539608296 1.67358378026336 0) 8
(92.6274314302148 94.3826481673786 0) 99
(82.720942852423 80.1948043425543 0) 88
(94.2205261132775 27.9702208135138 0) 29
(90.884009977283 74.3127753372829 0) 79
(94.0167262749824 39.3714949671978 0) 39
(83.0376703120012 26.3457429717974 0) 28
(92.4552277533595 16.6284372176176 0) 19
(90.6353552502745 82.5153039686919 0) 89
(94.3113166719262 41.6993561860637 0) 49
(97.988247246476 6.46537212024693 0) 9
(85.8449607369699 66.1721473867875 0) 68
(93.0311286975775 95.8029540701783 0) 99
(80.076818866691 33.3158810312468 0) 38
(81.3742993685297 5.1606589020978 0) 8
(81.3668485457855 11.1233677301199 0) 18
(81.1012031701865 23.7952666467965 0) 28
(80.7980141885569 69.971399880001 0) 68
(99.588324138703 19.1107301596136 0) 19
(98.6847010993793 75.0927015091724 0) 79
(82.8928392859608 52.3616705333636 0) 58
(95.7414827010322 63.5071368252426 0) 69
(96.0271148085721 29.6525479898101 0) 29
(82.4335703823872 40.9835522253921 0) 48
(96.5365816916044 33.3123502942325 0) 39
)


// ************************************************************************* //
