/*--------------------------------*- C++ -*----------------------------------*\
| =========                 |                                                 |
| \\      /  F ield         | OpenFOAM: The Open Source CFD Toolbox           |
|  \\    /   O peration     | Version:  2.4.0-MNF                             |
|   \\  /    A nd           | Web:      www.OpenFOAM.org                      |
|    \\/     M anipulation  |                                                 |
\*---------------------------------------------------------------------------*/
FoamFile
{
    version     2.0;
    format      ascii;
    class       vectorField;
    location    "0/lagrangian/agentCloud";
    object      v;
}
// * * * * * * * * * * * * * * * * * * * * * * * * * * * * * * * * * * * * * //


600
(
(0.031868781731233 0.0786326533075167 0)
(0.00967135810857836 0.121820695995324 0)
(0.188891529404306 0.039875433162131 0)
(0.103916548824797 -0.224813071431352 0)
(0.0614014884331653 -0.18640376811792 0)
(0.101952911307081 -0.0299573346324884 0)
(0.0936194362265031 0.0844299256623839 0)
(-0.195001507838867 0.0923699837333526 0)
(-0.151541332940033 -0.00146611523711659 0)
(0.237019042832797 0.110643352014877 0)
(0.132068846742996 0.00387253849897355 0)
(-0.164564172142989 -0.00111666494196112 0)
(-0.0590349691348798 -0.1244405875885 0)
(0.191675013030712 0.115356067310216 0)
(0.14796375868944 -0.0556569850155916 0)
(0.113014310171003 -0.0687282156971099 0)
(0.0208714828624238 -0.0150831485533133 0)
(-0.100672449021429 0.148917074474308 0)
(-0.271959010106843 -0.151866906457195 0)
(0.153391213100816 0.218730220229248 0)
(0.0920498297609319 0.106783440342221 0)
(0.0654980775134376 0.0740680401940319 0)
(-0.136270216271495 -0.206381009556195 0)
(0.0589544972593538 -0.126060224723984 0)
(-0.0267370769978103 -0.238375103119179 0)
(-0.149751201341376 -0.0485197156144238 0)
(-0.0833592188782964 -0.122490940261499 0)
(-0.174147278943824 0.00237096509167521 0)
(-0.189962901380233 -0.0267108965145025 0)
(-0.107227981725176 -0.06565586718118 0)
(0.167021017464829 -0.0482688276279379 0)
(-0.0165989138630734 -0.0986440955297276 0)
(-0.264353322034468 -0.162558375009059 0)
(0.0331394786022563 -0.0238724413500352 0)
(0.0143816845903959 -0.0146831070327269 0)
(-0.00859181902552955 -0.0360559694751926 0)
(0.059848659863343 -0.29648710247106 0)
(-0.162863282734764 0.106242463047281 0)
(-0.0473348592974981 0.21468755632099 0)
(0.106029510863426 -0.114231466777172 0)
(-0.122828374973874 -0.073427850609093 0)
(0.116522803090751 0.113348501447559 0)
(0.109559610471422 0.184803181607849 0)
(-0.0119052387499299 0.17737061331581 0)
(-0.119699840877254 -0.0189273693310828 0)
(0.137922170079481 -0.0171409627620581 0)
(0.0474906534305214 0.0681319206384318 0)
(-0.0418970266963865 -0.0783928592207227 0)
(-0.0136935245020603 -0.195072014340052 0)
(-0.20711597116066 0.0648651501533064 0)
(-0.121235002839614 0.0879547007253231 0)
(-0.152784398599222 0.00324156621873831 0)
(0.0201529752408247 0.212625453665175 0)
(0.139708459329796 0.061197329809909 0)
(-0.202520678279465 -0.0683991101643806 0)
(0.0515335201545489 0.0657039798006334 0)
(0.152550995291988 0.00678321237184982 0)
(-0.0374908975284286 -0.236292401678518 0)
(0.0261123272436076 0.105464091119642 0)
(0.124628765021676 0.0242726760379054 0)
(-0.0506981332884996 -0.0540585108390319 0)
(0.0868528790425159 -0.323516084756376 0)
(0.0391152904285057 0.205431585111554 0)
(-0.0690066712973874 0.265563417098129 0)
(0.212300066419712 -0.103640554569419 0)
(0.141172816545862 0.22879691498483 0)
(-0.0221560134481971 -0.184369222515521 0)
(0.0592471773619066 0.180538861497469 0)
(-0.0953645519328983 -0.161079909048364 0)
(-0.0516164081811594 -0.233758332328956 0)
(-0.0976831548592823 -0.0077572411594194 0)
(0.082123193144371 0.195794001650648 0)
(0.00141325807647362 -0.0142281020418581 0)
(0.122910548582726 -0.0127298847311189 0)
(0.0831645386782017 0.10830932211452 0)
(0.0416807126360243 -0.0641857737008506 0)
(0.174681477761553 -0.334456344115981 0)
(0.00964347407073693 0.0176947476898935 0)
(-0.00875325951504581 0.165257021155056 0)
(-0.0460349992707379 0.360973746948718 0)
(-0.00524480728254961 0.0480848725195783 0)
(-0.243172015057844 -0.0436273991447701 0)
(0.0483178232864914 0.0519291388050482 0)
(-0.0288479980775699 0.1146881628956 0)
(-0.123961492145254 -0.288486946366338 0)
(-0.295186915796349 -0.128876530542449 0)
(0.0486158223030465 0.0140637033961939 0)
(-0.194121271550764 -0.126151672251888 0)
(0.0350069745356649 -0.116204229735015 0)
(-0.0994483109144632 -0.0158142683763221 0)
(0.136111181274958 -0.178086954922626 0)
(0.116122538798967 0.229264673735508 0)
(-0.0208054889452659 0.176791846040624 0)
(-0.127779696220412 -0.0159328568469551 0)
(0.0632612843856345 0.146152942766716 0)
(-0.0585996192628039 -0.0846914437847933 0)
(-0.195844847486509 -0.128628521994094 0)
(-0.27315315007298 -0.0663143303831095 0)
(0.0402282884208124 0.191644751567067 0)
(0.0869940720001969 -0.276158839497851 0)
(0.0505497552272939 -0.0219453013923559 0)
(0.0410819736243629 0.140362411019883 0)
(-0.142482363723081 -0.138871962339787 0)
(-0.0729603855160297 -0.124965222746563 0)
(0.0152142497703825 0.100761069889877 0)
(-0.196909758593558 -0.108302632823583 0)
(-0.134494737413831 0.00164273585885281 0)
(0.198153458026336 0.0339224237735962 0)
(-0.0504326635350511 0.0530612517759399 0)
(-0.270750705641663 0.105361825682744 0)
(0.0247725907601784 -0.132275101367154 0)
(-0.0744937007936641 -0.12504539877478 0)
(-0.319241816823868 -0.226776241022694 0)
(0.0813195265870678 0.394346360842468 0)
(0.0552620229153461 -0.119673822580149 0)
(0.0449195415873169 0.0012050599777627 0)
(0.181436462685843 -0.0225968362109733 0)
(-0.0443779926061784 -0.0839922173127984 0)
(0.105816067317437 -0.218938168489061 0)
(0.017471018855083 0.0920332249562677 0)
(0.153797955168391 -0.172543811372304 0)
(0.0731795036791941 0.1390905479709 0)
(-0.143532168147921 -0.168767257814236 0)
(0.215166281610318 -0.105011779593722 0)
(0.0163926107251932 -0.146248372736365 0)
(-0.206818659135275 0.338059880263039 0)
(0.193931515736398 0.015916876131218 0)
(-0.0458755331565038 0.177659849713688 0)
(0.176258125349159 -0.00698229586458159 0)
(-0.068968300477089 0.00450657323342424 0)
(0.0624681420883904 0.0985884935271337 0)
(-0.331435586304259 0.209878295005567 0)
(-0.219784351834126 -0.00196195270455995 0)
(0.11129057690972 -0.0221546819123174 0)
(0.0348598084867847 0.06247274798488 0)
(-0.0464469291441421 -0.102255143830689 0)
(0.0919235308714754 -0.288801844755044 0)
(-0.100730757806414 -0.163503216482402 0)
(-0.124576230199258 -0.124268020736037 0)
(0.0673619557346735 0.0465802601596222 0)
(0.133693555539698 -0.1625626559918 0)
(-0.0484450611595882 -0.203915272951322 0)
(-0.0840496380609136 -0.0125248376591818 0)
(-0.176723020541839 -0.150804928636353 0)
(-0.0270086937252517 0.110381770759698 0)
(0.123481005689872 -0.0657528780800193 0)
(-0.179330767909346 0.0300382991897233 0)
(0.14931025995332 -0.201704317327785 0)
(-0.0346458296092998 0.0940015660055174 0)
(-0.0384402747942047 0.2303572318037 0)
(0.00931556840678505 0.210258988340559 0)
(0.187988454863695 -0.130449244490323 0)
(-0.0992746194635331 0.04044336834465 0)
(0.217175236323976 0.00311916051062566 0)
(0.00871289611033724 -0.0976708330568689 0)
(-0.160848556122387 0.0119043167709001 0)
(-0.116657312330509 -0.0149449433474179 0)
(-0.0871429171339972 -0.142761903946128 0)
(0.139092277092324 -0.0756259808087272 0)
(0.00884779267419119 -0.0946197545407632 0)
(0.229550174847842 0.0862764868933689 0)
(0.228999280057976 0.123968521504419 0)
(-0.150897294403171 0.0229715599799626 0)
(-0.0707764473614107 -0.176298536363035 0)
(-0.122655014475645 0.0767082614988656 0)
(0.11311705565282 0.0286573080366185 0)
(-0.214483867848679 -0.0212434747607628 0)
(-0.142007885580437 0.0237441988746055 0)
(0.0264945468032808 -0.0559735723342626 0)
(0.0466937095290623 0.159669477504378 0)
(0.0904865580464372 -0.0285131520384094 0)
(0.319388881469699 -0.00974801784396441 0)
(-0.0362677842206149 0.155104491340775 0)
(0.341913657606592 -0.0702814480545724 0)
(0.301980994213046 0.0457709755682293 0)
(0.141105164069624 0.236619253179866 0)
(-0.0871694293203145 -0.123783961313746 0)
(-0.0244359028671925 0.202518517193749 0)
(0.0173141151973762 0.227541838053889 0)
(-0.110689471425228 -0.0914702368386915 0)
(-0.0903707029423574 -0.0697631235650689 0)
(-0.0485302861301149 0.147658893770238 0)
(0.0297026798930542 -0.00313835071645682 0)
(0.184607023870357 -0.310670648745596 0)
(0.000228941329756325 0.0632492723168706 0)
(0.00335871518694191 -0.0695925266079958 0)
(-0.0747908627933203 -0.365918867069649 0)
(-0.00359305487737776 0.0134969916263527 0)
(0.00604884510807843 -0.109974710347436 0)
(-0.150127063498249 -0.148541364858653 0)
(0.257459215133609 0.0161257130156667 0)
(0.215880377585011 0.0613730178874504 0)
(-0.0175083171665339 -0.0901414998396265 0)
(-0.0383271465011814 0.204680036420276 0)
(-0.036602373988103 0.095502748626616 0)
(-0.0871978034634302 -0.220745726500209 0)
(-0.227559569728834 -0.163189208896069 0)
(0.198625145001165 -0.18682644739682 0)
(0.305275929792663 0.282534730012194 0)
(0.0616879762151623 -0.262001824152595 0)
(-0.102910722126305 0.0445834974809765 0)
(-0.0214594210454858 -0.258549156884131 0)
(-0.14896616700617 0.20811007829378 0)
(0.0916817887859516 0.1645149742264 0)
(-0.0987511292550898 -0.00794495854969814 0)
(0.00923953476800221 -0.131417655689697 0)
(0.141725454984759 0.267609966910976 0)
(-0.116860234399007 -0.297609547231945 0)
(0.0391860406017118 -0.11725953960363 0)
(-0.141540294514664 -0.000673132073611367 0)
(0.180761226025749 0.0732693978120623 0)
(-0.0185402685541814 -0.114868657656754 0)
(-0.168236408452431 0.254361845956997 0)
(-0.0418858463991298 -0.0372821227069993 0)
(0.302819271893534 -0.0255224702040545 0)
(-0.0325919455171312 -0.104579961929289 0)
(0.0939967230944106 0.0528665074291975 0)
(0.256418865724909 0.135432707129506 0)
(0.157346536954063 0.0744174094393321 0)
(0.314772588599416 0.166819928478922 0)
(-0.125770659178167 0.0719633216297609 0)
(-0.0731451648473144 0.0313614265038048 0)
(-0.251064983623793 -0.133596514071149 0)
(-0.0435953768746911 0.19855301268462 0)
(-0.176407083394032 0.109430909946889 0)
(-0.219851436555958 -0.0990761698123861 0)
(0.00398858069633804 0.0494261771644228 0)
(-0.0805377435892004 0.0461841025287286 0)
(0.0548675530509763 0.307637528872471 0)
(-0.205884659729972 0.0304395199711689 0)
(0.0915861154547664 0.16006913298737 0)
(-0.2737312370555 -0.199221507759484 0)
(0.140333842751576 0.0256204576945929 0)
(-0.110895920670735 0.012096158854876 0)
(0.390362822511828 0.207288266414547 0)
(-0.125805844063201 0.0941311601348818 0)
(-0.0294950071076586 0.0900637189261982 0)
(-0.0583423569965708 -0.0732647148613587 0)
(-0.153893144655045 -0.00851446779445142 0)
(0.383073132047008 -0.118787634486493 0)
(-0.12061561966532 -0.0297791212272979 0)
(-0.0379772414189808 -0.132911176413888 0)
(0.0189689716763177 -0.230800551034446 0)
(0.0693673307728119 -0.22525112039991 0)
(0.105884560053034 -0.0383636404356797 0)
(0.0188340403297518 0.122669298242858 0)
(0.0390042676129444 0.0387499459426204 0)
(-0.0895955649862443 0.0349708249596989 0)
(-0.0292837142573167 0.085046063926633 0)
(0.0920438892523904 -0.21532713693918 0)
(-0.0854799578378914 -0.0622773109896054 0)
(0.0680903698828186 0.0549365865176581 0)
(-0.0187476726360039 -0.0295906485710234 0)
(0.0186291676634303 0.243663641211617 0)
(0.00506358386793506 0.191937189507912 0)
(0.0245616476540089 -0.0250738316510683 0)
(-0.0173456937684465 -0.0158782039572181 0)
(0.0382501973576057 0.0383575809700719 0)
(-0.0435919906313072 0.0982095414060573 0)
(-0.0697753777653205 0.113210561784017 0)
(0.209703008353483 0.0580689537121583 0)
(0.103359592064082 0.258606028658036 0)
(-0.204077198325782 -0.0242817478706161 0)
(0.196821861678314 -0.266908217624084 0)
(-0.138645649661228 -0.0610710521683836 0)
(-0.144831327914506 -0.153004162640811 0)
(0.0128391900292011 0.0687406483270043 0)
(-0.176264536319202 0.311415234668877 0)
(0.150149120773856 -0.313117767478841 0)
(-0.0549001618986849 0.149045640323274 0)
(-0.116438240818925 -0.0885228764858274 0)
(-0.169375040255527 0.10728026469521 0)
(0.00276123741404364 0.307353507357497 0)
(0.0366068470817755 -0.0774267696051184 0)
(-0.0393411892063881 -0.115746278427216 0)
(-0.157774523022277 -0.0360229218660368 0)
(0.0562567489138922 -0.0721494589799911 0)
(0.231320153679363 0.0149125195206157 0)
(0.050509243970732 -0.166120861572565 0)
(-0.0644039162964759 -0.0967117414514711 0)
(0.194229363225326 -0.0535150434404444 0)
(0.0846396246732103 0.106677745143089 0)
(-0.158175088006324 -0.0778077231247839 0)
(-0.000593001955347232 -0.217748976616563 0)
(-0.0229720010929657 -0.0683436695302175 0)
(0.219561128071698 -0.169746834876085 0)
(-0.0681992571411436 0.236836590093294 0)
(-0.0360840242491642 -0.102060359371216 0)
(0.106577955175263 -0.0666094932606971 0)
(0.0542220649508525 -0.153443984980724 0)
(-0.12680906822027 0.0250364973931247 0)
(-0.0287898168738996 -0.317262159257246 0)
(-0.0795373013281376 0.357121997982421 0)
(-0.198425636873784 0.0867173748239319 0)
(0.105521358562427 -0.0129416434980376 0)
(0.0187738803775827 -0.113219016659095 0)
(0.0114571270629358 0.100804809270452 0)
(0.0590068331675879 0.370239150202004 0)
(-0.0858988695002904 0.00746797388294082 0)
(-0.0594794618803303 0.161418052085864 0)
(-0.00114333736249614 0.158992804921711 0)
(0.160811124004639 0.155941501322885 0)
(-0.125128720050313 0.0887454660368436 0)
(-0.0183072641657253 -0.0638815097785683 0)
(0.0994521100689355 0.0559422392635721 0)
(-0.228031458798556 0.0588342986285152 0)
(0.156622282524082 -0.122228583973048 0)
(-0.0725027741673473 0.494850177646187 0)
(0.0390333034996419 -0.0728484481537534 0)
(-0.0190267265031256 0.0674191993037803 0)
(-0.135542941781311 -0.169436769159962 0)
(0.165361485362312 0.222038612404434 0)
(-0.105373876854606 -0.24712668762194 0)
(0.0893359989601975 -0.0467643864425084 0)
(-0.00776719720701829 0.116572418120336 0)
(0.0804519236534287 -0.0788916084741986 0)
(0.0138507370731853 0.0757103365809083 0)
(-0.161393248486895 -0.0694868852579496 0)
(0.0564244024122511 0.155525442019183 0)
(0.0437456606739209 -0.0569367354869726 0)
(-0.192412099653472 -0.184299358718435 0)
(0.10409902151679 -0.225799400400926 0)
(-0.0603092613176909 0.0109107782890465 0)
(-0.042493218364786 0.301333431486542 0)
(0.0517905048015321 0.0207494127966059 0)
(-0.0281327867414952 -0.0411882372884349 0)
(0.301117194282264 0.189780995339246 0)
(-0.00265713239757004 -0.000130810380353147 0)
(0.0199408883251658 0.0669657772986455 0)
(-0.124222565877087 -0.0439474524851899 0)
(-0.0296252253713575 0.00378198064689268 0)
(0.0103050860319553 -0.346487599339897 0)
(0.158825474420386 0.121789834741954 0)
(0.150484613622016 -0.180339708475844 0)
(-0.123375340722521 0.144423918347036 0)
(-0.0692780294840965 0.0389304339202798 0)
(0.113714238117112 0.0191293949695242 0)
(-0.374432959360317 0.146907568721375 0)
(0.0466378235476776 -0.193228044683185 0)
(-0.244452302970576 0.0536539250546478 0)
(-0.0836701109782274 0.0861124161228735 0)
(0.0886207687803609 0.230466839061675 0)
(0.226189606602615 0.117524058892714 0)
(0.0584378701491223 0.186172061932751 0)
(-0.11791937871176 -0.154304145964178 0)
(0.0177917374926222 -0.112508216439483 0)
(-0.0335453258504177 0.0627000034880711 0)
(-0.060655073935628 0.0172256858720086 0)
(0.18737902609346 0.140706289122734 0)
(-0.0350273308631906 0.0705724291147698 0)
(0.070396564572166 -0.157500489356089 0)
(-0.0523427807256644 0.27779781391787 0)
(-0.0157943083276844 0.0731021360282329 0)
(-0.225438775029619 0.189095458589092 0)
(0.129313585251807 0.0985544645591055 0)
(0.126969608131675 -0.00187722482519378 0)
(-0.0488902232019561 0.10852433442031 0)
(-0.242620567960787 0.159690263382871 0)
(-0.101741608320289 0.124147264449192 0)
(0.0808558144881671 0.0700853975081809 0)
(0.0351614557782848 0.184721602262621 0)
(0.116997466228434 0.0114229583499054 0)
(0.164916546126967 -0.0292284732267107 0)
(-0.260741108699443 -0.217253034716837 0)
(0.116062501976875 -0.15094111206713 0)
(0.00677043572410557 -0.128200803355508 0)
(-0.199588661912996 -0.274638868893753 0)
(-0.0021583197344251 0.0258717650770167 0)
(0.00310758117922106 0.119778118127709 0)
(0.0560031370580674 -0.0620311435686557 0)
(0.103141788163407 -0.0919270917337335 0)
(0.00578279992848505 0.505784555303417 0)
(-0.103733167617804 0.0716690979301797 0)
(0.0910087807434568 0.209723759639471 0)
(-0.227759336129554 0.177307636484297 0)
(-0.0183965506369326 0.117873680035986 0)
(0.0953854330955114 0.0292962405331204 0)
(0.0905139462227407 0.0698208467619875 0)
(0.277350217194199 -0.101883529669068 0)
(-0.171725533636997 -0.0764250212782662 0)
(0.204343307583176 -0.180649305062377 0)
(-0.124575645670975 -0.0847947368664688 0)
(0.343670392452591 -0.0882151574928223 0)
(0.0761337285150342 -0.171513910339204 0)
(0.0199552547177412 0.0398785581584786 0)
(0.0338090914243697 0.130496255352846 0)
(0.142269391106917 -0.276624834700323 0)
(-0.143984179241342 0.180076238250155 0)
(-0.0302944009734952 -0.0325406568068588 0)
(0.160765035416144 0.0455824626716542 0)
(-0.0929757398347084 -0.00227052166488009 0)
(-0.0273855887147387 0.0439166288110207 0)
(-0.0735693970595888 -0.137653379980507 0)
(0.0187875475336979 -0.0336982501630609 0)
(-0.171173076771069 0.201255647318984 0)
(0.118583097969656 0.0808005572603018 0)
(0.158944602775598 -0.182929133836682 0)
(0.198044647676091 -0.161761313459267 0)
(0.114945154813261 0.285950551778465 0)
(-0.287673224290178 0.128675684440393 0)
(0.0589601052590251 0.0700465949397056 0)
(0.0961914494199866 0.0263261855967531 0)
(0.136847058473107 0.176128722232746 0)
(0.142889836389014 -0.0799988790816261 0)
(0.100140883742393 -0.162207475487488 0)
(-0.143511344766611 -0.148595714981195 0)
(-0.000518473193852276 0.18641172950582 0)
(0.0153480017422133 0.00516699751624585 0)
(-0.237294161928208 0.119022938736773 0)
(-0.07849251207153 -0.0535187633520053 0)
(0.0366349117724718 -0.0820605647418495 0)
(0.2376330550938 0.0937010078187759 0)
(-0.0019629433764542 -0.227945486228708 0)
(-0.083479938484962 -0.0773446439065321 0)
(-0.140226933920919 -0.207784768180322 0)
(0.0480481121186448 -0.00500463509085387 0)
(-0.0098495701854558 0.0112386799504934 0)
(0.0467071276307002 0.283071393529249 0)
(0.319976299346614 0.170365864157566 0)
(-0.103588769513955 0.230641997247286 0)
(-0.0860390043341383 -0.104991294608383 0)
(0.0288494946744719 -0.245618383657499 0)
(0.0872219977012035 -0.0118476353591211 0)
(0.0316523101536436 0.00840010447730553 0)
(-0.0728844197984794 -0.30950188083793 0)
(-0.0851846233738437 0.0655302724066843 0)
(0.202128746125946 0.00534019488900937 0)
(0.115489362418298 0.00925455257855539 0)
(-0.0292807156487739 0.0949090717012257 0)
(-0.135966928769002 -0.124078228368581 0)
(-0.0858854594498179 0.0516234892413895 0)
(0.0768814044194359 -0.157541447941493 0)
(-0.0696008442969482 0.0387735103320065 0)
(-0.16232757663004 -0.0466678191007413 0)
(0.0388218183178351 0.0555619095936306 0)
(0.0349372983570715 -0.0170762665875896 0)
(0.00908838312346483 -0.103451837958594 0)
(-0.0944003150142289 -0.188184616762253 0)
(0.246559309568159 -0.231373830036984 0)
(0.0294173115887571 -0.0515913738034268 0)
(-0.015996318743279 0.0213319768759954 0)
(-0.00544574130247712 -0.137073768612309 0)
(0.082101227646155 0.139922531110385 0)
(0.141926642238726 -0.143186827660942 0)
(-0.0505339096376267 -0.0661959175712544 0)
(0.0181445712054508 -0.306380351616785 0)
(0.171410557373806 0.313348808129649 0)
(0.0346878194593643 -0.000103073483124333 0)
(0.0378543734710007 -0.179812970027483 0)
(0.0747698532452276 0.213403791179294 0)
(0.0363070780989034 -0.12153700059835 0)
(0.122146660929718 0.0764820297481921 0)
(0.19410253041616 0.147610850077833 0)
(0.147403634905755 -0.028718789391956 0)
(0.00899577046122673 -0.197588682812223 0)
(-0.118044984892131 -0.115669592261667 0)
(0.1123048028482 -0.171570827868878 0)
(-0.180046767753551 -0.159686121559771 0)
(-0.0246161385803418 -0.384662292049423 0)
(-0.0200986567023204 0.0251926194994257 0)
(0.0537554708591092 -0.117155641213181 0)
(0.00133465572338798 0.206720350728649 0)
(0.0957773607468367 0.163958674256699 0)
(-0.0606729869228519 -0.115996983509752 0)
(0.163084562626921 -0.130188228088443 0)
(-0.14298276999305 -0.112325128287839 0)
(0.0308891427091674 -0.0151840787166243 0)
(-0.0140980584461587 -0.0975549692108033 0)
(-0.175055129168833 -0.168393088390684 0)
(0.0248034123287385 -0.0762202147371471 0)
(-0.17210189762411 0.265955598746019 0)
(0.0166459843670866 -0.0983206838825531 0)
(-0.0442397458210051 0.150234335059829 0)
(0.111619022201164 0.0664860329999931 0)
(0.11162050756299 0.161289736676837 0)
(0.148173297236169 0.178720007217437 0)
(0.130766430298116 0.0155784576759037 0)
(0.113662832952385 0.0394986790573321 0)
(0.242432768171074 0.0630005980493895 0)
(0.111659395548005 -0.091218589894706 0)
(0.125295011110352 -0.123156464903208 0)
(0.0727934159555657 -0.0735540757886088 0)
(-0.145388272952847 -0.00909359735464319 0)
(0.031381392476674 -0.0567892450854183 0)
(0.158774990293212 0.13940161051949 0)
(-0.00840009695990135 0.0403853981615115 0)
(-0.208012511575276 -0.122980380997094 0)
(0.0557805854632448 0.0557937181123774 0)
(0.0723916531515532 -0.0221798183608106 0)
(0.0567220242591408 -0.140034009705433 0)
(0.0723280578298302 0.252666564545035 0)
(-0.0626839770658765 0.304221768568803 0)
(-0.0453409908918766 -0.0725887687180411 0)
(-0.168160967978172 0.0607765469824931 0)
(-0.0433713240590066 0.0474589878481559 0)
(0.0973988249395293 0.066227459978411 0)
(0.143938093810003 -0.279858863974738 0)
(0.18899802445015 -0.083396958945653 0)
(0.00686658663155698 -0.126756010976082 0)
(-0.145967036243419 -0.114712595714507 0)
(0.142902474621753 -0.162352915693609 0)
(-0.0047570311450961 0.278944550436003 0)
(0.157721063334876 -0.000293293703503034 0)
(-0.160697378775335 -0.0473818539684506 0)
(0.0427679388656163 0.36117232651321 0)
(0.169311619548416 -0.000324551908508236 0)
(-0.188721754391328 -0.00675097658807489 0)
(-0.049715161765206 -0.0184699022069172 0)
(-0.159687247726388 0.0544730994531692 0)
(0.0461921995506157 0.0778106157040977 0)
(-0.141590775386389 0.0479151154114597 0)
(0.0828461827788811 0.0932051905882065 0)
(-0.0116986763055448 0.0740922875923758 0)
(0.101915517011147 0.0653110794079906 0)
(-0.097743344550832 0.097782102725495 0)
(-0.0902318402313767 0.0902257898769839 0)
(0.001994937794729 -0.0223379069615526 0)
(-0.134976919932677 0.0209556005172968 0)
(-0.00506944314508458 0.117111685437465 0)
(0.155410634818053 0.197296328660077 0)
(0.109072331316572 -0.0207572379089883 0)
(-0.119631092040527 0.225858729116514 0)
(-0.0910237101482052 -0.217081659821243 0)
(0.19045642831972 0.0565146003998217 0)
(-0.0865896494437785 -0.127504678726056 0)
(0.116018335129839 0.01441494696005 0)
(-0.282901416612038 0.0430823129069903 0)
(-0.213437868994567 -0.0420698999107104 0)
(0.0464932704913118 -0.00031632469464191 0)
(0.2710500553635 -0.0690013943335294 0)
(0.281469208976925 -0.35801871285088 0)
(0.117941049616535 -0.0580980649421989 0)
(0.155203061160873 -0.156479806638105 0)
(-0.193353280791378 0.182326142134051 0)
(-0.0307747533465048 0.170499368408224 0)
(0.0655537840314618 -0.0947744473190029 0)
(0.0293401973034322 0.0995181426440551 0)
(-0.12184789279894 0.39698492523812 0)
(-0.0211961326932015 -0.0615171970938936 0)
(0.134486324548569 0.0647014373445762 0)
(-0.0560369848982537 -0.0166099889830705 0)
(0.0853686877977578 0.1856066951924 0)
(-0.1819587931578 -0.0508661030317309 0)
(-0.00238048589155181 0.0628653844913032 0)
(-0.00177902629784082 -0.213008414956953 0)
(-0.399366787835194 -0.0802260938428051 0)
(0.13484733605463 0.00282126426308757 0)
(0.00232370401026204 0.170659294545462 0)
(-0.0228472553464242 0.0529589315845964 0)
(0.202149087747143 -0.00617324771589007 0)
(-0.187066378133982 0.0703660456452329 0)
(-0.120172681330169 -0.277067361636553 0)
(-0.0970250609875187 0.0179487990264161 0)
(0.135817587140755 -0.172378104940259 0)
(-0.140345984466677 -0.0751313172228225 0)
(-0.223346771855866 0.210830337632919 0)
(0.0396433230610862 -0.130422758204004 0)
(-5.11226034019052e-05 0.0593383341774936 0)
(-0.133747920558013 0.0624636557585969 0)
(-0.16408184807703 -0.0792383610053187 0)
(0.0667638472107022 -0.058020370242131 0)
(-0.117853729657208 -0.0945055094728797 0)
(0.172467294879617 -0.0924699315983224 0)
(-0.325033737766475 -0.0433640361989345 0)
(-0.139958312908374 -0.134206475496961 0)
(-0.115989349409536 -0.122745418232234 0)
(0.142893003393792 0.182620731801823 0)
(-0.10321097713733 0.0342212312915966 0)
(-0.123969488227407 -0.0729030676737206 0)
(-0.220098755863222 -0.332972265306903 0)
(-0.116660835392331 -0.047500381995567 0)
(0.105426265731153 0.0622455991973155 0)
(-0.048638792066 -0.0485822302167371 0)
(-0.0861556472630267 0.10908127890565 0)
(0.160317197120111 0.141967782124358 0)
(0.27483126643531 -0.122823496078594 0)
(-0.190915563347049 0.0340083883390735 0)
(-0.253405157769634 -0.255405580288717 0)
(0.0310789208264445 -0.222244385518599 0)
(0.088359787786194 0.230040400973496 0)
(-0.0710265307919457 -0.0629560781235161 0)
(0.105731037706015 -0.0555581434951321 0)
(0.373696564134357 -0.0520427477156034 0)
(0.101814109093667 0.0625547643327276 0)
(-0.0418107813999487 0.236577337291494 0)
(0.158809394322947 -0.0328554251411238 0)
(-0.2359707619983 0.0961952210627928 0)
(0.00844942377084351 0.135001709698596 0)
(-0.000729885156829001 0.0476423116756875 0)
(-0.0787411346481625 0.094017834985526 0)
(-0.0206871385819998 0.0799584674856858 0)
(-0.180560768305686 0.113611575590798 0)
(-0.0432764304610786 -0.216357228519853 0)
(0.0366712746136 0.0461873097067013 0)
(0.035464601469022 0.0361359242962766 0)
(-0.0232378500625314 0.279639280677348 0)
(-0.103487911606956 -0.00622006632471464 0)
(0.173376746197756 -0.123137863693477 0)
(-0.112987185466444 -0.151642371956745 0)
(0.195125124273623 0.0472003388086662 0)
)


// ************************************************************************* //
